107

Pd  0.0  0.0  0.0 
O  1.73479  -0.01632  0.0 
O  0.36809  2.04135  0.0 
N  2.04613  3.59455  -0.09886 
C  2.48936  1.14253  0.25432 
H  3.23898  1.27546  -0.50816 
H  2.96892  1.16358  1.25635 
C  1.57141  2.30251  0.06508 
C  1.10956  4.72028  -0.26228 
H  1.66893  5.66938  -0.3879 
C  0.24966  4.90495  0.99855 
H  -0.39883  5.79912  0.89012 
H  0.90962  5.06302  1.87934 
H  -0.3989  4.02965  1.20078 
C  0.26619  4.58469  -1.53626 
H  0.94035  4.53916  -2.41764 
H  -0.39081  5.47318  -1.6432 
H  -0.37603  3.68426  -1.53578 
C  3.50129  3.88003  -0.14094 
H  4.13356  2.99809  0.05526 
C  3.91057  4.83777  0.97222 
H  3.61728  4.38648  1.94346 
H  3.44085  5.83231  0.86632 
H  5.0141  4.96714  0.96158 
C  3.93686  4.37554  -1.53573 
H  3.79574  3.56536  -2.28604 
H  5.01662  4.63968  -1.53292 
H  3.36532  5.26421  -1.86907 
O  0.29712  -2.02503  0.0 
N  1.91481  -3.64183  0.22264 
C  2.45579  -1.20683  0.20181 
H  3.02508  -1.21189  1.15517 
H  3.08626  -1.45285  -0.63896 
C  1.49057  -2.32382  0.14171 
C  0.94432  -4.7402  0.29248 
H  1.46113  -5.71121  0.39929 
C  0.09292  -4.85659  -0.98736 
H  -0.58965  -5.72956  -0.9043 
H  0.75563  -5.02926  -1.86351 
H  -0.52648  -3.96048  -1.18578 
C  0.0776  -4.60302  1.55547 
H  0.74688  -4.58351  2.44137 
H  -0.6103  -5.46787  1.64274 
H  -0.52365  -3.67358  1.55137 
C  3.36156  -3.97178  0.25247 
H  4.02481  -3.09864  0.11501 
C  3.73581  -4.90028  -0.9133 
H  3.45209  -4.41791  -1.87304 
H  3.24106  -5.88686  -0.84865 
H  4.8332  -5.07444  -0.92915 
C  3.79286  -4.52414  1.61112 
H  3.68522  -3.71791  2.37077 
H  4.86611  -4.81414  1.5744 
H  3.18779  -5.39837  1.9123 
S  0.97164  0.03168  -4.39482 
N  0.49449  0.0  -1.88407 
O  -1.85449  0.0  -0.59593 
O  3.71121  -0.1164  -3.73741 
C  -1.88354  -0.00987  -1.93527 
C  -0.67813  0.0039  -2.56826 
C  -0.60893  0.02179  -3.95871 
C  -1.72274  0.02409  -4.79529 
C  -2.9652  -0.03818  -4.12619 
H  -3.84867  -0.06847  -4.72788 
C  -3.07531  -0.06701  -2.70498 
C  -4.45194  -0.17482  -2.02562 
C  -4.71413  1.09093  -1.1935 
H  -3.938  1.24893  -0.4205 
H  -5.69585  1.01692  -0.67934 
H  -4.72779  1.98329  -1.85722 
C  -4.48703  -1.43343  -1.1304 
H  -4.28778  -2.34258  -1.73823 
H  -5.4837  -1.54318  -0.65344 
H  -3.74219  -1.39767  -0.3142 
C  -5.61359  -0.31947  -3.04306 
H  -5.6751  0.56501  -3.71365 
H  -6.59161  -0.40626  -2.52662 
H  -5.47987  -1.23633  -3.6613 
C  -1.59841  0.07404  -6.34314 
C  -2.97768  0.09662  -7.03587 
H  -3.55083  -0.82679  -6.80138 
H  -2.86598  0.15155  -8.13884 
H  -3.55737  0.98888  -6.71086 
C  -0.84577  -1.17018  -6.87195 
H  0.19074  -1.24683  -6.50151 
H  -0.77364  -1.13747  -7.97986 
H  -1.3796  -2.09793  -6.57478 
C  -0.86128  1.36309  -6.78534 
H  -1.39774  2.26301  -6.41648 
H  -0.80218  1.41552  -7.89301 
H  0.18006  1.42253  -6.42585 
C  1.53271  -0.00197  -2.83435 
C  3.02936  -0.04648  -2.72857 
H  3.61758  -0.05055  -1.85862 
N  0.0  0.0  1.91 
H  -0.99736  0.00216  1.62695 
C  0.05383  -0.00376  3.32292 
C  -1.15135  -0.00511  4.0587 
H  -2.10815  -0.00328  3.55327 
C  -1.12693  -0.00636  5.4502 
H  -2.06241  -0.0072  5.99726 
C  0.0935  -0.00592  6.12288 
C  1.2946  -0.00454  5.39753 
H  2.24047  -0.00503  5.92139 
C  1.27471  -0.00421  3.99351 
H  2.20438  -0.00465  3.44245 
I  0.11501  -0.00504  8.22986 
