88

Fe  0.0  0.0  0.0 
N  1.2577231924450278  -1.3193465229205084  -0.0612850044337901 
C  2.1667229764985527  -1.3742615511052176  0.9184834540655217 
C  2.5731650571306743  -0.19506301728266912  1.5364437302339677 
C  2.217470834597687  1.0677947573162827  1.0703784223728972 
N  1.3469074525402478  1.1784955504261199  0.06138118638780007 
C  0.7913306829833738  -2.4176517223268044  -0.8266333212642096 
C  1.6066900557347732  -3.157665607273742  -1.7089641001403537 
C  0.9711161189087177  -4.126927233931786  -2.4742813153626644 
C  -0.4069131119054994  -4.292287039885981  -2.4322278541927815 
C  -1.1973181076015438  -3.4800434175090085  -1.6568448387180625 
C  -0.614851489765068  -2.525915721095689  -0.8103614555124916 
C  -1.3626206067306228  -1.5444739213859249  0.04738112912174105 
C  -1.188545931414576  -1.783705528379312  1.5477318033405962 
C  -2.8491268034202615  -1.5105979414518276  -0.27535533486522107 
C  3.0593212717371023  -2.8000494481445064  -1.9451026675647518 
C  3.1394860179513637  -1.9688484268724118  -3.226813503011121 
C  3.98189516649556  -4.00737868205939  -2.0246422152420473 
C  2.68286212822416  -2.695968122680423  1.419953617396189 
C  2.7500984124328616  2.293540396919256  1.7557853236539775 
C  1.070397335341145  2.3598813789181725  -0.6699125503040176 
C  2.046246951523177  3.0691181728914807  -1.4055291805346313 
C  1.5904508298266444  4.118584910889716  -2.191205838760991 
C  0.23007727256535498  4.41664605898484  -2.2849506343524237 
C  -0.71249882006319  3.6558062971330805  -1.6337814809134277 
C  -0.3142416240264556  2.6110534676844726  -0.7875668916016567 
C  -1.2420100382546524  1.6853248938803136  -0.04747731107575136 
C  -2.667604907108072  1.7842895125891354  -0.5710106855062818 
C  -1.2274784578325515  1.881929166747011  1.4648473640720792 
C  3.502748807593051  2.6432326556031853  -1.4726735729221787 
C  3.8052466654295003  2.069070523277631  -2.861918282038515 
C  4.466154354345818  3.7831560237393407  -1.145955839606217 
H  3.1456485952675384  -0.23915948614605737  2.263994931178669 
H  1.4628402091774388  -4.652237666322635  -3.07558595418623 
H  -0.7987757645399328  -4.939738406116726  -2.972567256639283 
H  -2.117510681330532  -3.5970132630697482  -1.6519029278006645 
H  -1.659107772501231  -2.5934697486643254  1.814088802984571 
H  -0.2682973924474782  -1.9047152798284444  1.8439228170178203 
H  -1.578597104966188  -1.0549659941570988  2.089588494055586 
H  -3.2570359923487247  -2.418104196411537  -0.16119360398869179 
H  -3.329935713896504  -0.9067765903926868  0.3341885090145791 
H  -3.037081880750652  -1.2818880299634772  -1.2068944512166049 
H  3.3662342803322387  -2.263938532160745  -1.2559780772923292 
H  2.5675094723648044  -1.1760050445970145  -3.2638238053737476 
H  3.995163934860887  -1.702902155696983  -3.3890444906838293 
H  2.9154669360886176  -2.539149318717359  -4.012091265157886 
H  4.947396266504026  -3.6963984854045373  -2.0960664630221157 
H  3.782749837623379  -4.634133872030457  -2.8085900769220964 
H  3.952943742979753  -4.52093050105683  -1.1829378227853913 
H  2.0691173478540703  -3.367315577158628  1.2680676077241215 
H  3.4540719049342976  -2.951875739957537  0.9326491727968718 
H  2.8972609869006094  -2.585737317352804  2.3391340561322735 
H  2.888367853572591  2.1072255011479717  2.672818916964845 
H  3.580907274577791  2.5686918501208917  1.4028324055721522 
H  2.1948492345868904  2.9840794388063214  1.679469714955193 
H  2.1809352118113328  4.588828140293106  -2.6823637968889558 
H  -0.03807553980071948  5.151483976448179  -2.7609970231406464 
H  -1.6352269807507658  3.8485043369813363  -1.7074374169455144 
H  -2.718816040676865  1.5926298778344194  -1.5397275967885655 
H  -3.035648909788161  2.670417735032187  -0.42701309705031415 
H  -3.252372212317028  1.2160016281308752  -0.08706179446859101 
H  -1.5483012705190462  2.7557513467744448  1.71186228376728 
H  -1.84519648635619  1.2194273153324946  1.8985254060677594 
H  -0.3705002781315795  1.7803853095476532  1.8884198544222952 
H  3.626872900065155  1.9411186786436598  -0.8255302479731724 
H  3.2046439912739486  1.3160176682313522  -3.079489317114068 
H  4.677414388477638  1.6992217309960906  -2.8725344829084287 
H  3.7258901800862385  2.798924809533909  -3.5521766460351447 
H  5.352639452270849  3.4720617533291773  -1.2150738262292207 
H  4.340256310523929  4.102748488164113  -0.2683224085857698 
H  4.378738058992793  4.484953023234754  -1.7962688894568153 
P  0.00508600543819504  0.00018264403277462593  3.3816585880618604 
F  -1.5665568384594897  -0.14980118592162678  3.379814143047303 
F  -0.007476892665621349  -0.0015895476651651697  4.95662502990366 
F  -0.14702433190830275  1.5585064732507774  3.3604581502438124 
F  0.0  0.0  1.7999999999999998 
F  1.5624020627520128  0.14378341550519952  3.3532810253569423 
F  0.15356999484320832  -1.55108179920196  3.416071696697973 
O  0.0  0.0  -1.79 
S  -0.726448604961612  -0.03240627438686061  -3.1287587899728955 
C  0.057554532763358826  -1.339824358888451  -4.037390729954972 
H  1.023080801525856  -1.176615931840033  -4.076801181233169 
H  -0.3059854740759113  -1.3687419397211373  -4.947384096384688 
H  -0.11167283118558155  -2.1951510059362764  -3.5906737433282974 
C  -0.07383840811130783  1.3392963264723652  -4.058769653222912 
H  -0.3211526680848864  2.179482358277457  -3.618835182223726 
H  -0.4441817160824891  1.3250416162050143  -4.966192937846001 
H  0.9026443682125735  1.268919209817922  -4.103520396168831 
