50

Ni  0.0  0.0  0.0 
P  1.4437283851195843  1.4127095773725038  2.312700724981556e-15 
N  1.4437283851195832  -1.4127095773725038  2.220446049250313e-16 
N  1.4675384921996308  -2.7877561977917757  -0.004185746573275159 
H  0.8196913653759852  -3.2382794760325497  0.27710020407044644 
C  2.675434106250191  -3.1662356096709336  -0.3046506369366357 
C  3.510748597156227  -2.009794571705762  -0.47676413725664996 
H  4.438429649271271  -1.9967312639349428  -0.6788695442521446 
C  2.6987675101330595  -0.9435014112943485  -0.2892666962700945 
C  2.984052898302875  -4.627943446210579  -0.41937875812116315 
H  2.1721251698120954  -5.147651942393871  -0.24582665440958537 
H  3.672450116658311  -4.868839370929198  0.23382577586070885 
H  3.3089575011333907  -4.823254396471975  -1.3244155207819686 
C  2.966313616424897  0.5579599321935906  -0.38106743166731655 
H  3.269959978491184  0.7946976278649307  -1.2938833168556427 
H  3.672934144052176  0.8173872312437209  0.26085380683728854 
C  1.2463097224671014  3.8722017445186374  1.4173428841968192 
H  0.6480293066828747  4.131616804676728  0.7265766207963501 
C  1.5332945004257583  4.792605195324397  2.4857864133385563 
H  1.1193061175243515  5.646822544260653  2.46509560380892 
C  2.344793191281239  4.513989642415029  3.501682878740847 
H  2.526098500467267  5.142244157154524  4.191373838207798 
C  2.897853728419559  3.2792215570705885  3.4879585326687046 
H  3.479952796894244  3.019965191950452  4.194346217743698 
C  2.615002500047664  2.337972215168959  2.4101217829805615 
H  3.0147735027463014  1.47675575604164  2.443373187906257 
C  1.8177677665592507  2.632414970185631  1.375059222679097 
C  0.009457813490043376  2.254988881667364  -2.1170791295825753 
H  -0.6839561707446495  1.6812765822806603  -1.8123121956803079 
C  -0.1303511224548346  2.9784914659005644  -3.2361791438967034 
H  -0.9286451455543638  2.919499050661897  -3.7455112139923186 
C  0.9291753528272727  3.8410784544211927  -3.65762237306427 
H  0.8135557500661516  4.345600375569084  -4.453336510514779 
C  2.1018350371966275  3.9703529372484905  -2.966517002845994 
H  2.788751775424064  4.553379543135811  -3.2666839923209983 
C  2.2442742559757805  3.2462466691345693  -1.8569252574586441 
H  3.0470040908296587  3.3106938644097186  -1.35255997191983 
C  1.2020552102986632  2.375557534084086  -1.418906501087498 
Br  -1.5839191898578664  1.5839191898578664  0.0 
C  -1.308147545195113  -1.308147545195113  0.0 
C  -2.5481111008682706  -1.081588847540519  0.5874691967409313 
H  -2.7399447190521347  -0.23895174706744582  0.9782000501948406 
C  -3.514692573752534  -2.090568128666735  0.6049610958635798 
H  -4.3504064840370384  -1.9365173000894942  1.0287619599160838 
C  -3.2692344052199704  -3.300825455744854  0.016423527177974795 
H  -3.920165040096455  -3.990528127682657  0.045080339651694334 
C  -2.0939695739763726  -3.5035118821402764  -0.6007549227026172 
H  -1.9425337635726068  -4.327915038834382  -1.0474288760065322 
C  -1.0854604411866036  -2.53050399443706  -0.5998012209931928 
H  -0.24896772463074335  -2.712575304189299  -1.0129111498427692 
