41

Ru  0.0  0.0  0.0 
S  1.81425  1.38091  0.0 
S  1.81425  -1.38091  0.0 
C  2.83993  -0.00367  0.5712 
N  4.1559  -0.03021  -0.11915 
C  5.04621  1.16497  0.03782 
C  4.87593  1.92368  1.38001 
C  5.86159  3.09854  1.45203 
C  5.68054  4.03602  0.24832 
C  5.88991  3.267  -1.0638 
C  4.88954  2.10953  -1.16812 
C  4.87125  -1.33838  -0.02758 
C  5.76673  -1.49845  1.22906 
C  6.43262  -2.88239  1.21007 
C  7.23696  -3.07431  -0.08664 
C  6.31718  -2.95351  -1.30857 
C  5.64842  -1.57762  -1.33209 
H  6.10648  0.85437  -0.0179 
H  5.06146  1.23979  2.23421 
H  3.85371  2.33544  1.48174 
H  5.70068  3.66386  2.39562 
H  6.90242  2.70715  1.45821 
H  4.65819  4.47389  0.26252 
H  6.41789  4.86444  0.30964 
H  6.92755  2.86464  -1.09364 
H  5.75822  3.94735  -1.93125 
H  3.86801  2.52654  -1.22647 
H  5.08579  1.5427  -2.10463 
H  4.15719  -2.17969  0.02428 
H  5.15764  -1.38947  2.14897 
H  6.58026  -0.74723  1.26285 
H  7.10463  -2.98043  2.08855 
H  5.65193  -3.67235  1.28159 
H  8.03475  -2.30173  -0.14772 
H  7.71273  -4.07593  -0.08532 
H  5.53799  -3.74578  -1.26599 
H  6.89882  -3.09007  -2.24573 
H  6.42139  -0.79696  -1.48044 
H  4.94105  -1.53207  -2.19052 
Cl  -1.58392  1.58392  0.0 
Cl  -1.58392  -1.58392  0.0 
