93

Pd  0.0  0.0  0.0 
O  0.06639  1.9626  0.0 
N  2.06028  -0.03067  0.0 
O  -0.47988  4.52553  0.32219 
N  0.27333  -1.93193  0.0 
C  1.59169  -2.32544  -0.06297 
C  2.51054  -1.37806  -0.08699 
C  2.86995  0.96019  0.10273 
H  3.93074  0.82272  0.12545 
C  2.43508  2.34024  0.25697 
C  3.4555  3.28127  0.44582 
H  4.48918  2.9825  0.44917 
C  3.16  4.61517  0.63788 
H  3.95493  5.32544  0.78341 
C  1.84804  5.03623  0.62667 
H  1.6584  6.08444  0.78035 
C  0.81122  4.12451  0.39733 
C  -0.86196  5.8393  0.47202 
H  -0.2887  6.47177  -0.24149 
H  -0.66103  6.16476  1.51539 
C  -2.32173  5.99168  0.15364 
H  -2.49193  5.70917  -0.90679 
H  -2.60008  7.05402  0.30205 
H  -2.9201  5.34542  0.82507 
C  1.10105  2.77366  0.21927 
C  3.93921  -1.75591  -0.16842 
H  4.71614  -1.01871  -0.20851 
C  4.3039  -3.0408  -0.20385 
H  5.33837  -3.30489  -0.26909 
C  3.31337  -4.14889  -0.15638 
H  3.6167  -5.1971  -0.17502 
C  1.90199  -3.74612  -0.08105 
C  0.91013  -4.64017  -0.01726 
H  1.11985  -5.6993  -0.02052 
C  -0.48944  -4.18853  0.06617 
H  -1.2693  -4.92805  0.11122 
C  -0.77477  -2.88142  0.0824 
H  -1.797  -2.54678  0.13583 
O  -3.95593  -3.79804  -2.79235 
O  -4.47589  -2.1355  -1.38305 
N  -2.02191  0.0  0.02191 
N  -3.97005  0.71559  -0.81488 
N  0.02191  0.0  -2.02191 
N  -0.69398  0.49959  -4.06568 
C  -2.41577  -0.37962  -2.45037 
H  -3.15091  0.03584  -3.15544 
C  -2.79521  0.10547  -1.08126 
C  -2.76792  0.59017  0.95815 
H  -2.48582  0.73388  1.91181 
C  -3.95568  1.01012  0.47903 
H  -4.73122  1.49872  1.05136 
C  -1.03825  0.06441  -2.84323 
C  1.06293  0.42605  -2.76846 
H  2.08432  0.49825  -2.43819 
C  0.62369  0.73506  -4.02198 
H  1.23559  1.07253  -4.84292 
C  -2.48557  -1.88742  -2.65688 
H  -2.36807  -2.06245  -3.74441 
H  -1.65595  -2.4085  -2.17369 
C  -3.75413  -2.57144  -2.2661 
C  -5.06309  0.98469  -1.72711 
H  -5.87656  1.51592  -1.19657 
H  -5.44417  0.0231  -2.11624 
H  -4.68608  1.60921  -2.55939 
C  -1.55156  0.64186  -5.22569 
H  -1.76862  -0.36742  -5.63835 
H  -1.04232  1.26144  -5.98561 
H  -2.49254  1.14164  -4.93015 
C  -4.96753  -4.63627  -2.3974 
H  -5.35774  -5.19657  -3.27122 
H  -5.80944  -4.05604  -1.96853 
C  -4.44046  -5.58225  -1.33045 
H  -5.28125  -6.20679  -0.97713 
H  -4.03999  -4.98926  -0.47859 
C  -3.34224  -6.48746  -1.86427 
H  -3.72032  -7.07299  -2.7288 
H  -3.03762  -7.18576  -1.05878 
H  -2.46237  -5.88553  -2.17486 
C  -0.00418  0.01704  3.39512 
C  1.15349  0.68337  4.05253 
H  1.21034  1.73322  3.69342 
H  2.13785  0.17207  3.72239 
H  1.09941  0.63805  5.12907 
C  -0.08345  -1.47737  3.85706 
H  -0.97037  -1.96768  3.39409 
H  -0.17756  -1.49697  4.9522 
H  0.85053  -2.0024  3.53223 
C  -1.20206  0.72989  3.92539 
H  -2.14898  0.22339  3.72412 
H  -1.16871  1.78848  3.54639 
H  -1.22833  0.74007  5.03351 
N  0.0  0.0  1.91 
H  0.9947  -0.25507  1.88242 
