72

Pd  0.0  0.0  0.0 
O  0.05301  1.92584  0.0 
O  0.3635  -1.93775  0.0 
N  1.9835  0.01191  0.0 
N  2.4967  -1.25755  -0.184 
C  0.6653  4.26556  -0.18089 
C  1.05708  2.82572  -0.0651 
C  2.35372  2.50815  -0.02442 
C  2.88104  1.13095  0.14591 
C  4.38141  0.87378  -0.06817 
C  1.67036  -2.23885  -0.11068 
C  2.13654  -3.6394  0.00436 
C  1.22984  -4.64405  0.39317 
C  1.66744  -5.95673  0.58257 
C  3.0098  -6.28231  0.3761 
C  3.91866  -5.29604  -0.01688 
C  3.48779  -3.98031  -0.19348 
H  -0.44167  4.35985  -0.16207 
H  1.08291  4.83675  0.67566 
H  1.04528  4.6851  -1.13495 
H  3.08953  3.30598  -0.09375 
H  4.64484  -0.20093  0.02404 
H  4.70792  1.21991  -1.07127 
H  4.94461  1.40711  0.72192 
H  0.18914  -4.40704  0.58083 
H  0.96769  -6.71728  0.90146 
H  3.34637  -7.29846  0.52972 
H  4.95952  -5.54438  -0.16648 
H  4.20987  -3.22106  -0.47954 
C  -0.34509  0.02987  -3.09285 
C  -1.61566  -0.88183  -2.8724 
C  -2.44414  0.00482  -1.92509 
H  -3.52963  -0.28164  -1.93725 
C  -2.28529  1.42561  -2.50941 
H  -3.06555  1.55063  -3.2954 
H  -2.43208  2.25053  -1.78961 
C  -0.92904  1.4566  -3.19792 
H  -0.24398  2.25129  -2.82886 
H  -1.14814  1.72167  -4.25663 
C  0.409  -0.29149  -4.41154 
H  0.7757  -1.33741  -4.40571 
H  1.26347  0.40268  -4.55521 
H  -0.25301  -0.16187  -5.29373 
C  -2.39947  -1.1467  -4.19693 
H  -2.67188  -0.22687  -4.73546 
H  -3.33077  -1.71574  -3.97475 
H  -1.79768  -1.80276  -4.87128 
C  -1.40049  -2.30544  -2.34864 
H  -0.65367  -2.88688  -2.93665 
H  -2.34492  -2.87663  -2.23641 
H  -1.13053  -2.25617  -1.35144 
N  0.66187  0.0  -1.97587 
H  1.3508  0.77003  -2.14911 
H  1.17338  -0.89207  -2.14332 
N  -2.02187  0.0  -0.50413 
H  -2.42526  -0.84809  -0.04412 
H  -2.54529  0.81364  -0.16701 
N  -1.13259  0.22695  2.83995 
N  1.12161  -0.26417  2.89395 
C  0.0  0.0  1.95 
C  -0.71622  0.08521  4.15743 
H  -1.35363  0.19421  5.03829 
C  0.60021  -0.18739  4.1965 
H  1.18143  -0.32854  5.0962 
C  -2.46536  0.72647  2.5953 
H  -2.49927  1.22561  1.66828 
H  -2.68237  1.57537  3.26084 
H  -3.21978  -0.0836  2.72565 
C  2.53528  -0.60906  2.81182 
H  2.95574  -0.8491  1.8811 
H  2.72818  -1.53219  3.38953 
H  3.14717  0.23512  3.18926 
