41

Co  0.0  0.0  0.0 
O  5.550485545153996  3.3314768275717483  -1.8179836409902386 
O  4.356392224624213  5.006032556003925  -1.0528229622820338 
N  1.2347087247606199  1.3371216717262495  -2.4985670153803805e-15 
N  1.2347087247606214  -1.3371216717262495  0.0 
C  1.1749130385786701  2.6501705528601174  0.02281428646978011 
H  0.3936978355470916  3.062505766370049  0.31717589784609573 
C  2.256598562108039  3.4516213390226778  -0.38670366862674277 
H  2.19051066249414  4.377443944531569  -0.32978440428370714 
C  3.4244114951398483  2.873991276380087  -0.8771698898644097 
C  3.46714196662023  1.4410627549790331  -0.9250885643291021 
C  4.581849102377923  0.6685834273001188  -1.401420139809526 
H  5.342072701576716  1.1147675649259594  -1.697958053999827 
C  4.568756108284406  -0.6822746346054087  -1.435911589337044 
H  5.315847256824812  -1.1406109498105894  -1.7458856171793042 
C  3.419167942936072  -1.4169171325703274  -1.0002145612602258 
C  3.340498611220246  -2.8348045470734315  -1.0215386331295473 
H  4.034560930886394  -3.3390848001408178  -1.3784406684080825 
C  2.243661297616587  -3.4433141294135043  -0.5170947852267294 
H  2.181072135425337  -4.371569819411855  -0.5171985247102514 
C  1.2039359725429677  -2.669257907092475  0.004637687489590887 
H  0.46277946147798643  -3.0987751358862803  0.36782303448928844 
C  2.3306177449650742  -0.7119478878619927  -0.4820683555300005 
C  2.3469251569458396  0.7278354884066567  -0.4787778031540952 
C  4.5488469462759635  3.8401779012158954  -1.2922956204771585 
S  -1.5132085117392118  1.5132085117392118  0.0 
O  -0.6769219669440957  2.25898700883017  -1.072067156605125 
C  -2.942263818104853  2.5939501069644515  0.23587334673126015 
H  -2.645127398057148  3.454286311971358  0.5997549651671858 
H  -3.56974726186127  2.174640530374229  0.8615729765787725 
H  -3.3871014427084063  2.7392979295355655  -0.625134131872093 
C  -1.3152186130069785  -1.3152186130069785  0.0 
N  -1.7663523420726233  -1.6939824185252323  1.270434397412418 
C  -2.629522969324304  -2.6497528732799887  1.4124204392187436 
F  -3.0231495590826833  -3.008328950955002  2.623551594112545 
C  -3.2741203057101966  -3.2719134024889454  0.3543714423293562 
F  -4.20781975373131  -4.188418034619545  0.5573223971145529 
C  -2.916789612119673  -2.9119368746016727  -0.8939062690747775 
F  -3.4677614831242067  -3.483542096476337  -1.976804675060944 
C  -1.8958444309651146  -1.9767349727741612  -1.0465240920689889 
F  -1.5613699095596614  -1.5581207419688907  -2.3008652339829054 
