105

Pd  0.0  0.0  0.0 
O  1.73479  0.01632  0.0 
O  0.36809  -2.04135  0.0 
N  2.07103  -3.60395  0.06284 
C  2.53568  -1.12652  0.02841 
H  3.16168  -1.14331  0.94696 
H  3.15228  -1.17259  -0.90069 
C  1.58512  -2.30141  0.0246 
C  1.16036  -4.78369  0.06638 
H  1.73488  -5.72223  0.18608 
C  0.30417  -4.90346  -1.17409 
H  -0.35021  -5.80078  -1.06615 
H  0.94713  -5.04221  -2.06119 
H  -0.35705  -4.0234  -1.30324 
C  0.26762  -4.77955  1.25794 
H  0.93569  -4.80721  2.11891 
H  -0.3727  -5.68023  1.32153 
H  -0.39644  -3.89731  1.22248 
C  3.53606  -3.84739  0.14002 
H  4.13085  -2.94663  -0.00723 
C  3.96566  -4.78857  -0.98552 
H  3.65233  -4.34049  -1.95076 
H  3.52582  -5.79915  -0.89489 
H  5.06652  -4.90441  -0.96905 
C  3.95898  -4.37792  1.52199 
H  3.84677  -3.56512  2.27118 
H  5.0368  -4.64565  1.51645 
H  3.37763  -5.26454  1.84433 
O  0.29712  2.02503  0.0 
N  1.907  3.65991  -0.17306 
C  2.48752  1.19652  0.05672 
H  3.1472  1.23312  -0.8422 
H  3.07102  1.26426  1.00094 
C  1.49025  2.34103  -0.02791 
C  0.94783  4.78675  -0.39317 
H  1.50486  5.73266  -0.54623 
C  0.01641  5.11071  0.77698 
H  -0.66328  5.95653  0.55802 
H  0.62805  5.51042  1.61351 
H  -0.63417  4.2419  1.02187 
C  0.11626  4.57277  -1.64742 
H  0.79332  4.51225  -2.51997 
H  -0.57057  5.43698  -1.77514 
H  -0.4982  3.65509  -1.5784 
C  3.35492  3.96451  -0.19267 
H  3.99147  3.07853  -0.01005 
C  3.72982  4.91178  0.94474 
H  3.44258  4.44265  1.91062 
H  3.23096  5.8928  0.84892 
H  4.82962  5.07082  0.94885 
C  3.79909  4.48202  -1.56837 
H  3.68458  3.67254  -2.32312 
H  4.87067  4.77206  -1.54048 
H  3.21047  5.35789  -1.89968 
S  0.65818  0.0  -1.97384 
N  -4.50732  0.81698  2.15374 
N  -2.01818  0.0  -0.50616 
N  -1.87551  0.0388  -1.87025 
N  -0.80323  -0.14313  -3.99521 
H  -1.7564  -0.17588  -4.39422 
H  0.00167  -0.1796  -4.64688 
N  -4.17846  0.9512  -0.65254 
H  -4.0408  1.13193  -1.65787 
H  -5.0853  1.23414  -0.25237 
N  -2.90506  -0.87171  3.5648 
C  -4.70324  0.66936  3.48961 
H  -5.4934  1.21358  3.98116 
C  -3.86397  -0.17242  4.21639 
H  -3.97721  -0.28617  5.28571 
C  -2.72322  -0.73696  2.22612 
H  -1.95654  -1.30709  1.72521 
C  -3.51217  0.15146  1.50798 
C  -3.2692  0.38078  0.07329 
C  -0.65794  -0.04859  -2.60068 
N  0.0  0.0  1.91 
H  -0.45237  0.85545  1.62765 
C  -0.38975  1.14422  4.15305 
C  -0.01884  -0.0344  3.3813 
C  0.50339  -2.55202  3.49828 
H  0.69923  -2.38929  2.42434 
C  0.20984  -1.23829  4.12373 
C  1.777  -3.16887  4.11578 
H  1.60208  -3.48536  5.15754 
H  2.61472  -2.44014  4.07765 
H  2.12003  -4.08153  3.61378 
C  -0.46909  1.0868  5.54512 
H  -0.71002  1.93947  6.14481 
C  -0.22352  -0.08552  6.2239 
H  -0.28574  -0.11426  7.29277 
C  -0.60515  2.4675  3.47306 
H  -1.30163  2.35025  2.6179 
C  -0.75948  -3.43174  3.71732 
H  -1.03619  -3.49599  4.77966 
H  -0.69644  -4.48373  3.42559 
H  -1.60868  -3.00786  3.14791 
C  0.10063  -1.22371  5.54199 
H  0.25673  -2.11093  6.10828 
C  -1.32693  3.56143  4.27926 
H  -2.32461  3.18813  4.59963 
H  -1.48523  4.44394  3.62286 
H  -0.72696  3.88256  5.1488 
C  0.80056  2.90882  3.12129 
H  1.40687  3.13498  4.01222 
H  0.76021  3.80703  2.59683 
H  1.34314  2.17324  2.49843 
