62

Pd  0.0  0.0  0.0 
P  1.5235755806654308  1.473369420749596  -3.416936955255835e-15 
N  1.5235755806654294  -1.473369420749596  -4.440892098500626e-16 
C  3.0424605617268687  0.44535836753430247  0.2583663654061916 
H  3.762155279972413  0.7723879998955194  -0.354290399909557 
C  3.421793025688015  0.7892669099976084  1.6932203566561426 
C  4.083912604708736  0.015007858646035155  2.5493176376222997 
H  4.385710001735616  -0.836298522724269  2.2502407308140335 
C  4.378874807012044  0.42488171749995374  3.9800381096365327 
H  4.137875645528659  -0.31804105162003227  4.5882527208449275 
H  5.349676374552141  0.5917655326092048  4.075724465593302 
C  3.630084416247872  1.6472661410097782  4.381866757022209 
H  4.0756932884894255  2.0413556285631396  5.17339581446709 
H  2.7171060391398285  1.380591446621115  4.655907812898683 
C  3.5224299959452656  2.7017215532916383  3.318026661284676 
H  2.944455219110263  3.4387048072589694  3.6403444248569703 
H  4.4194665006675375  3.076137366617899  3.129807618871588 
C  2.945403646988121  2.117717488946233  2.068043647225173 
C  1.9770955827773506  2.634198738850854  1.2947712817022963 
C  1.2691619991039946  3.934160929613271  1.4702437687069347 
C  -0.021005701976593683  3.9740846983379363  1.939575214253941 
H  -0.4682403810001132  3.1660319566200537  2.16276327056731 
C  -0.6788469458739972  5.194015595970889  2.091004414964949 
H  -1.5745912693111805  5.212845652852269  2.406741086873577 
C  -0.03821782710185051  6.364508871935992  1.785205162019968 
H  -0.4853721209297748  7.1958904472212994  1.899423434583414 
C  1.224419347678162  6.337355023460135  1.3264287749025636 
H  1.656627015571604  7.152003857008846  1.102434177173414 
C  1.9126198596321669  5.129705763918184  1.1722616536540977 
H  2.810919840839582  5.127136577978331  0.8668459647211596 
C  2.799807820295876  -1.0074124989270152  -0.01383862469732866 
C  3.865025854913841  -1.8657038019707746  -0.21286314038342646 
H  4.75084313229168  -1.5233489024484448  -0.24180366339148907 
C  3.6467786696755624  -3.216402168567472  -0.370830949156553 
H  4.37413070519235  -3.809776516974409  -0.5149014495451847 
C  2.3647015585827758  -3.688285642059324  -0.3158055126998795 
H  2.187920503731008  -4.619449687327756  -0.39678421017536725 
C  1.3326150632307934  -2.791546968517553  -0.14203155755517485 
H  0.44416465891187906  -3.1235005933940427  -0.1230895408482437 
C  1.6858739814181432  2.297820887498508  -1.5941057267599068 
C  2.784234759153971  3.100689925867835  -1.870039141118274 
H  3.439575445870945  3.2522442997100693  -1.1981644384373136 
C  2.929880821557279  3.679441675423062  -3.1124245832791098 
H  3.686173485648304  4.2217398653729346  -3.2977214786098723 
C  1.9760568662190854  3.4703317905150035  -4.085808956616175 
H  2.0882351906409657  3.8452093006773866  -4.9506727238676245 
C  0.8630408515045318  2.7169987198209586  -3.797069999099811 
H  0.1858031422943882  2.6118070633244166  -4.456931007667052 
C  0.7151635022157484  2.105286343205009  -2.5609852253636998 
H  -0.044646949478810205  1.5622692636235973  -2.3802014628776833 
Br  -1.654629867976521  1.654629867976521  0.0 
C  -1.35204078  -1.31992066  -0.4819701 
C  -1.63807002  -1.59921746  -1.81393823 
H  -1.15796809  -1.15933936  -2.50351594 
C  -2.63068217  -2.5263265  -2.14228996 
H  -2.83682226  -2.69439953  -3.05388981 
C  -3.31015444  -3.19615732  -1.16198741 
H  -3.99601236  -3.81199015  -1.38686634 
C  -2.99747104  -2.9701089  0.1242356 
H  -3.43865917  -3.46858118  0.80170842 
C  -2.03898543  -2.01594063  0.49125628 
H  -1.86191301  -1.84921651  1.41015686 
