74

Pd  0.0  0.0  0.0 
P  1.494618233864419  1.5027362825858699  2.125931546700745e-15 
P  2.9476901922945924  -0.9914197103408711  0.49878863917650923 
N  1.4946182338644207  -1.5027362825858699  1.1102230246251565e-16 
C  1.4089648362385947  2.622249725826279  -1.422959527140247 
C  1.4674855574537409  2.0772169216734326  -2.7131857738062357 
H  1.5886095601833834  1.1415069862079932  -2.8227382390181504 
C  1.3515088813894698  2.8851934702336877  -3.8257704436564635 
H  1.3941853189715996  2.509363954073905  -4.697338660412029 
C  1.1726684176917823  4.247308312817877  -3.6613530049334035 
H  1.0799758975364926  4.805161656557914  -4.424527299302244 
C  1.1276807304269814  4.80152430510554  -2.4049903972889353 
H  1.0213504924062473  5.740644366525467  -2.304974994869703 
C  1.2380776442375443  3.9900000182882245  -1.2741111980254645 
H  1.1965804948413967  4.373597354480884  -0.4059134784604469 
C  1.6610962769145963  2.5048633240709073  1.4924528380845739 
C  2.7997416405830204  3.307317995575181  1.6701430909894865 
H  3.454397047652133  3.361510984021473  0.9838671202616338 
C  2.968975012152705  4.0193220227614095  2.8432738898426058 
H  3.7422205293624553  4.556872166696154  2.9617051056211072 
C  2.0169327034565345  3.9522992482618893  3.845481193822634 
H  2.1402400638329837  4.440378792556839  4.650810147305562 
C  0.8866826234738592  3.174877139314278  3.6747450780807855 
H  0.2302727519387031  3.1369571990956633  4.360922277268504 
C  0.7066886079018216  2.447692121781065  2.498254804158593 
H  -0.06991279903688152  1.911122406027281  2.386225679031527 
C  3.1116567346378843  0.6495812081679873  -0.22354882243342034 
H  3.3340277046568767  0.5813084971215385  -1.1864485049648894 
H  3.832872909930454  1.1544500888836873  0.23121266646076244 
C  3.148062720900378  -0.802695871510025  2.281748075741785 
C  2.015427282231731  -0.6947449676289705  3.080549988247755 
H  1.1510924095932764  -0.785143776504631  2.695425328825673 
C  2.1469255258193387  -0.4573453792021076  4.433125393668175 
H  1.3725652519036524  -0.3572940982539423  4.9746468127846315 
C  3.4002761233468677  -0.3664729110368916  5.000727863894445 
H  3.4894542282187055  -0.22638623885130094  5.935484538054828 
C  4.527407840750104  -0.47741033693914625  4.209076457555838 
H  5.387407028742736  -0.40973793747793974  4.6049212920594 
C  4.4163973904681395  -0.686612056923595  2.8411137021111426 
H  5.192990718131973  -0.7501027878692943  2.297200703082785 
C  4.289113168684766  -2.045311400022293  -0.06563749844737654 
C  4.602031449708379  -3.217149459971026  0.6450806951123678 
H  4.127787924211953  -3.431875392750628  1.439823327866311 
C  5.598360366651377  -4.055792942932241  0.18776753353715325 
H  5.789845004785416  -4.8598636531441315  0.6565823438173203 
C  6.312855509085912  -3.735780056724098  -0.9382775561898454 
H  7.012844129983021  -4.307548007599337  -1.2329231754793262 
C  6.021817914691384  -2.5932447297367482  -1.6416421524235343 
H  6.516306822835125  -2.3818094042694917  -2.4252278866398487 
C  5.012824293168546  -1.7457443567448392  -1.2170471930741384 
H  4.813329854876402  -0.9596002616763861  -1.7113527775858977 
C  1.1760702557784963  -2.8886692763751447  0.04856317929945447 
C  1.317212235059456  -3.6627083233318305  1.1863066149962114 
H  1.6422615896682584  -3.2659597108779814  1.9852387995928518 
C  0.9906648166279258  -5.015584136313226  1.1786373147914504 
H  1.1122151767683928  -5.537992448468383  1.9628566752646175 
C  0.4943662566126179  -5.592478835034566  0.04018117338152266 
H  0.2693767406091221  -6.515906262774672  0.036506478046667734 
C  0.31952760115537426  -4.836300010999906  -1.1009098662115075 
H  -0.03938151595593786  -5.237279003110963  -1.8849128722899118 
C  0.66531901270581  -3.4925668966804175  -1.1079460000369545 
H  0.5555816141465286  -2.9793169745631443  -1.9001670997332805 
Br  -1.654629867976521  1.654629867976521  0.0 
C  -1.352040782177733  -1.3199206589279684  -0.4819701001757076 
C  -1.6380700204479186  -1.599217458033982  -1.8139382277462257 
H  -1.1579680913617836  -1.159339363685303  -2.503515938957912 
C  -2.63068216563725  -2.52632649780156  -2.142289956238523 
H  -2.8368222554424674  -2.694399528648736  -3.0538898079700485 
C  -3.3101544432602585  -3.1961573187854975  -1.1619874135498987 
H  -3.9960123560788676  -3.811990145619169  -1.3868663427944008 
C  -2.9974710358883443  -2.9701089012107795  0.12423560353005347 
H  -3.438659168087169  -3.468581175155742  0.8017084178296768 
C  -2.0389854250767776  -2.015940632791841  0.4912562833419403 
H  -1.8619130127668426  -1.8492165108145995  1.4101568590026907 
