94

Pd  0.0  0.0  0.0 
S  0.05624124624849891  -2.193315638884101  -4.928627836358588e-15 
N  0.47671647401629386  2.178018510186824  -1.3283811069962037e-15 
N  1.867042279735207  0.01529712869727648  6.250070049450885e-15 
N  2.5047458898439308  -1.1887687425488003  -0.06211395458934308 
H  3.3627136193968754  -1.2387996184880543  -0.0920980586866133 
N  0.00955840901099314  3.431777547333757  0.02772578353989287 
H  -0.8159322137406166  3.6388372770993325  -0.09016518328354971 
N  2.366135651057476  -3.4670502096363744  -0.18142031832931296 
C  0.6922310434714585  5.781981509828344  0.32611013104080283 
H  0.10389192079248388  6.023915718138162  -0.3929089059636671 
H  1.511753352796175  6.275429021907546  0.24914814469735128 
H  0.2725915563383805  5.987258923618218  1.1652632066035566 
C  0.9819490704147702  4.326371916423137  0.2605727642123862 
C  2.1427040343051837  3.621655598070043  0.3995255779680842 
H  2.991366283678075  3.9597106762230325  0.5737376057512472 
C  1.7829069269470317  2.2945114833684914  0.22709138660876008 
C  2.5485551914136657  1.0719145310107066  0.21485221977901936 
H  3.4688770328186855  1.054545754501002  0.35266910493983694 
C  1.7402826806937224  -2.296387577645524  -0.0754397939527897 
C  3.8138379761693333  -3.621226596503211  -0.12847771168391364 
H  4.243003749271918  -2.811348133069573  -0.44444463030614745 
H  4.087293179335236  -4.354382054206353  -0.7028624056840145 
C  4.226919739999614  -3.8980275839066643  1.2769569398610598 
H  3.9995448168623344  -3.141648403125536  1.840146702915386 
H  5.188405310107556  -4.024861277049161  1.31647962648581 
C  3.529475469488042  -5.137561659024881  1.784668566822081 
H  3.72412899956947  -5.254283334832996  2.7274012508971497 
H  3.8657867539189317  -5.913874861858669  1.3108501300022468 
C  2.0315142849739125  -5.036473584954906  1.5877848677257584 
H  1.616538330612903  -5.878384195209694  1.833518670127014 
H  1.676066116417833  -4.346492849834416  2.1675794560350283 
C  1.6899986420737707  -4.70889750202401  0.15045664301640038 
H  1.9887262976571132  -5.421675839887789  -0.43681743172369036 
H  0.7309311326376786  -4.607048866277541  0.04713623002538781 
C  -2.5587543435441074  -0.0011814198657348236  -1.204503027433697 
C  -1.7492253647744243  -0.051004484312291445  -2.354422800627155 
C  -2.2998647396973686  -0.07235034261175781  -3.6386364990114846 
H  -1.7246917157062296  -0.0969081911889667  -4.394683087884253 
C  -3.6606432085970684  -0.058316234856334956  -3.8231428197664226 
C  -4.467858796974595  0.011902145274704401  -2.677089482014603 
H  -5.409734608896057  0.03810374994531708  -2.7969431462471928 
C  -3.9749581487926817  0.04569288192694821  -1.3741414718705387 
C  -4.913954927891965  0.12940231457389073  -0.16334557258481053 
C  -6.388587645404399  0.18462603245284376  -0.5771210061541459 
H  -6.541023768214923  0.9744981330605567  -1.137493331616489 
H  -6.950481927387851  0.2395124885763304  0.223718892207855 
H  -6.617072662906991  -0.6233070267611895  -1.0808109987149572 
C  -4.600257106501328  1.3943224985384746  0.6530839375713393 
H  -3.671701362985882  1.359515907418503  0.9649475494260948 
H  -5.202699651141439  1.443475755420684  1.4240579888502793 
H  -4.726780561873298  2.1865251574542954  0.09040679884304081 
C  -4.72561460776512  -1.1130638700683169  0.7198670597043555 
H  -4.910499349524461  -1.9192566081882272  0.19397803028149463 
H  -5.342525571905427  -1.07018052758438  1.4805375673887653 
H  -3.803638142759248  -1.142631476109261  1.05001115649894 
C  -4.2755862986321045  -0.13329430644094523  -5.199031530672809 
H  -4.283507397085051  -1.0647190381651033  -5.50333663304856 
H  -3.749140680536557  0.40961740428815346  -5.822080867034863 
H  -5.193606859684596  0.20675108839401352  -5.16581664039056 
C  0.7773742598044174  -1.3378756909912781  -2.9827698261622277 
C  0.02339851246099716  -2.4011479857642892  -3.4496583563127303 
H  -0.9139698456806932  -2.4154314674761532  -3.2954866555861253 
C  0.6219117439998114  -3.445483896231858  -4.139988210643918 
H  0.09596301909574272  -4.1751842860748365  -4.4470732637397 
C  1.9770109045588484  -3.4247107923849223  -4.379514416326815 
H  2.3853718842901364  -4.135646548911834  -4.85914762026961 
C  2.7365193973947934  -2.378539174955919  -3.9262260906486417 
H  3.6703274261423537  -2.36320841267675  -4.099217920440132 
C  2.1535678579193815  -1.3456543740717115  -3.21733617625736 
H  2.6931669167449175  -0.6360273429515026  -2.887709413966854 
C  0.5996983135563486  1.5279167591286171  -2.8272653858372454 
C  0.9892923358155337  1.5722942617379678  -4.166243841631841 
H  1.0388880939485785  0.7708864231096129  -4.673659920368269 
C  1.3052820408668309  2.7885032948948774  -4.757909037472528 
H  1.5746841121866935  2.8168834736437636  -5.668131174877882 
C  1.2288763909191929  3.957287894734894  -4.029014212526631 
H  1.4459060214685437  4.786243602299774  -4.439413511209359 
C  0.8396667694928961  3.9267407952480657  -2.709745200799986 
H  0.7812563778450602  4.733846939233237  -2.211987359587067 
C  0.532183658966402  2.715501061524698  -2.1066561740462424 
H  0.273004433932636  2.697861588090987  -1.1925365165134454 
O  -2.013846533628242  5.551115123125783e-17  0.01384653362824162 
P  0.013846533628241176  -5.551115123125783e-17  -2.0138465336282416 
C  0.0  0.0  1.95 
F  2.0212400411828315  -1.2016601776602653  2.1321919958305657 
N  -0.004838144533952038  -0.016472707024984157  4.810338529314448 
C  0.9777782358849681  -0.5903148663383587  2.7184332697180698 
F  1.908792897171414  -1.2075258348221949  4.796673501465337 
C  0.9454578673314668  -0.5867163124996786  4.0986639476074 
F  -1.9192098075351323  1.1695397594816563  4.8162567375677545 
C  -0.9357752523676095  0.5768272133807749  4.098273142074747 
F  -2.0155354832461936  1.2428204548274757  2.1644520758536907 
C  -0.9779103538877937  0.6135024706555746  2.7265848944310953 
