97

Pd  0.0  0.0  0.0 
S  -0.07133  -2.11253  0.0 
P  1.84268  -2.44899  -0.72307 
O  0.26469  2.13615  0.0 
C  1.36235  2.91419  0.02742 
C  1.15231  4.29243  -0.12205 
C  2.22248  5.18641  -0.14613 
C  3.52494  4.70777  -0.06388 
C  3.74949  3.3454  0.10916 
C  2.67022  2.43193  0.20256 
C  2.99924  1.02761  0.6255 
N  2.20664  -0.02362  0.0 
N  2.70111  -1.29379  0.30378 
C  4.15549  -1.48796  0.07541 
N  2.0958  -4.04021  -0.02149 
C  2.38584  -4.12228  1.40731 
N  2.15285  -5.12165  -0.84466 
C  2.39321  -6.29793  -0.42796 
C  2.30021  -7.4268  -1.34214 
C  2.40924  -8.68491  -0.74466 
C  2.28593  -9.83622  -1.50933 
C  2.06381  -9.73895  -2.88123 
C  1.96141  -8.49104  -3.49296 
C  2.06737  -7.32137  -2.74667 
O  1.92328  -6.16086  -3.43199 
C  2.14941  -2.55894  -2.49987 
C  3.35984  -2.89416  -3.07117 
C  3.4786  -2.84587  -4.46484 
C  2.4005  -2.43124  -5.26574 
C  1.17649  -2.13083  -4.68202 
C  1.05006  -2.23362  -3.30994 
H  1.91669  -5.2655  -3.08594 
H  0.14275  4.67426  -0.20311 
H  2.04168  6.24888  -0.23402 
H  4.36353  5.39168  -0.09748 
H  4.7768  3.01156  0.20577 
H  4.02898  0.91557  0.20331 
H  4.72974  -1.04224  0.91537 
H  4.49896  -1.06656  -0.89631 
H  4.43004  -2.5657  0.09628 
H  3.40843  -4.5285  1.57111 
H  1.62862  -4.75443  1.90597 
H  2.37221  -3.12846  1.89731 
H  2.57523  -6.49197  0.6256 
H  2.57208  -8.77727  0.32526 
H  2.35434  -10.79942  -1.0277 
H  1.96414  -10.63279  -3.47484 
H  1.78277  -8.42129  -4.55714 
H  4.1805  -3.18764  -2.43742 
H  4.41403  -3.11245  -4.92231 
H  2.49668  -2.35229  -6.33616 
H  0.32985  -1.82179  -5.28509 
H  0.08498  -2.04049  -2.87987 
C  -1.36905  -0.02361  -2.35781 
C  -1.70484  -0.03776  -3.79458 
H  -0.91358  -0.05826  -4.52139 
C  -3.00204  -0.03303  -4.21824 
H  -3.18792  -0.06465  -5.28096 
C  -4.13052  0.01388  -3.22514 
C  -3.78422  0.04747  -1.7375 
C  -2.34354  -0.01397  -1.41127 
C  -4.65538  0.16048  -0.70587 
H  -5.71941  0.24001  -0.84769 
C  -4.18079  0.1906  0.70729 
H  -4.9073  0.27164  1.5099 
C  -2.87249  0.11528  0.99788 
H  -2.55337  0.12652  2.03127 
N  -1.93502  0.0  -0.06498 
N  -5.49847  0.05791  -3.72977 
O  -0.06498  0.0  -1.93502 
O  -5.69024  0.04883  -4.91685 
O  -6.43043  0.07713  -2.99907 
O  0.20783  -1.85599  6.84214 
N  0.0  0.0  1.91 
N  -0.01449  0.27887  6.15053 
C  0.15698  -1.22144  2.70802 
C  0.13525  -1.10065  4.1609 
C  -0.00645  0.08923  4.75127 
C  -0.17647  1.29884  3.92304 
C  -0.18133  1.23858  2.60141 
C  0.08764  -0.676  7.12043 
C  0.04831  -0.2949  8.55016 
C  0.25958  -1.29451  9.51263 
C  0.22363  -0.97941  10.86499 
C  -0.02707  0.33151  11.27182 
C  -0.23801  1.33167  10.32591 
C  -0.2035  1.02525  8.9755 
H  -0.09019  1.26036  6.41814 
H  0.32975  -2.24129  2.35049 
H  0.25485  -2.04203  4.66286 
H  -0.31224  2.26518  4.39851 
H  -0.34205  2.1746  2.10304 
H  0.45479  -2.31939  9.21856 
H  0.38831  -1.75693  11.59661 
H  -0.05527  0.57708  12.32172 
H  -0.43485  2.3502  10.63221 
H  -0.38539  1.85216  8.30818 
