61
unq_CSD-LIGSUR-02-a
N  -0.4514999999999998  1.8416000000000006  0.5251999999999999 
N  1.8311000000000002  0.016499999999999737  0.7400000000000002 
N  -0.33129999999999993  3.4724000000000004  2.2399000000000004 
N  1.4519000000000002  2.0805  1.9183000000000003 
N  3.5479000000000003  1.0604000000000005  1.9652000000000012 
Si  3.019  -1.2323  0.35970000000000013 
C  -1.4876  2.5044000000000004  -0.18590000000000018 
C  -2.5928999999999998  1.7908  -0.6082999999999998 
H  -2.6728  0.8933999999999997  -0.37540000000000084 
C  -3.5781  2.3829000000000002  -1.3655000000000008 
H  -4.3195  1.8855000000000004  -1.623000000000001 
C  -3.4852999999999996  3.6751000000000005  -1.7440999999999995 
H  -4.1459  4.064400000000001  -2.2704000000000004 
C  -2.4000999999999997  4.398200000000001  -1.3390000000000004 
H  -2.3377  5.2943999999999996  -1.5813000000000006 
C  -1.387  3.8324  -0.5742000000000012 
H  -0.6482999999999999  4.338699999999999  -0.32620000000000005 
C  0.21920000000000028  2.4172000000000002  1.5307999999999993 
C  -1.7289999999999999  3.386800000000001  2.6820000000000004 
H  -1.7732999999999999  2.8907  3.514999999999999 
H  -2.2472  2.9050000000000002  2.019399999999999 
C  -2.3205999999999998  4.755800000000001  2.882699999999998 
H  -3.2129  4.668200000000001  3.251800000000001 
H  -2.3928  5.2026  2.0251 
C  -1.4800999999999997  5.585100000000001  3.806499999999998 
H  -1.8224999999999998  6.4917  3.8272999999999993 
H  -1.5326999999999997  5.2226  4.703799999999999 
C  -0.044099999999999806  5.6042000000000005  3.3596999999999984 
H  0.48839999999999995  6.0763  4.018500000000001 
H  0.02200000000000024  6.088900000000001  2.521099999999999 
C  0.5164  4.2126  3.172299999999998 
H  1.42  4.2654  2.825899999999999 
H  0.5441000000000003  3.752700000000001  4.026100000000001 
C  2.1799999999999997  1.0465  1.4763000000000002 
C  3.5796  1.1081000000000003  3.4468000000000014 
H  3.0429000000000004  0.3857999999999997  3.806499999999998 
H  3.2022000000000004  1.9478  3.7535000000000007 
C  5.0134  0.9792000000000005  3.944699999999999 
H  5.0259  1.0156999999999998  4.914 
H  5.3789  0.12429999999999986  3.6683000000000003 
C  5.8551  2.0968999999999998  3.3843000000000014 
H  6.7814  1.9695999999999998  3.641799999999998 
H  5.5548  2.9468000000000005  3.743999999999998 
C  5.7407  2.1143  1.8546999999999993 
H  6.2286  2.8726000000000003  1.5007000000000001 
H  6.1312  1.3055000000000003  1.4893 
C  4.2845  2.2071000000000005  1.4458000000000002 
H  3.8998  3.0277000000000003  1.7903000000000002 
H  4.2189000000000005  2.2264999999999997  0.4764999999999997 
C  3.6935000000000002  -2.0955999999999997  1.8566000000000003 
H  4.2868  -1.5048999999999997  2.3260999999999985 
H  4.1742  -2.8815  1.5839999999999996 
H  2.9693000000000005  -2.3489  2.4339999999999993 
C  4.3878  -0.5831  -0.7104999999999997 
H  4.0527  0.1305000000000005  -1.259500000000001 
H  4.7183  -1.2891  -1.270900000000001 
H  5.0993  -0.2533000000000003  -0.15770000000000017 
C  2.0920000000000005  -2.5396  -0.6102000000000007 
H  1.3562000000000003  -2.8649999999999998  -0.08769999999999989 
H  2.6843000000000004  -3.267  -0.8146000000000004 
H  1.7614  -2.1572999999999998  -1.4280000000000008 
