28
unq_CSD-LIMJOH-02-b
N  1.9360999999999997  0.3915999999999995  0.6257999999999999 
N  1.1440000000000001  -1.5150000000000006  -0.9415000000000004 
C  2.5837000000000003  1.3394000000000004  1.3638999999999992 
H  2.1847000000000003  2.0725000000000007  1.7725 
C  3.928  1.0307000000000004  1.4067999999999996 
H  4.5861  1.5332999999999997  1.8287999999999993 
C  4.1348  -0.17689999999999984  0.7021999999999995 
H  4.9377  -0.6282000000000005  0.5695999999999994 
C  2.8764000000000003  -0.5354999999999999  0.2561 
C  2.4048  -1.5711000000000004  -0.5959000000000003 
H  2.9650999999999996  -2.2517000000000005  -0.8933 
C  1.3848000000000003  -2.3993  -3.2523000000000004 
H  2.3293  -2.5860000000000003  -3.1210000000000004 
H  1.3011999999999997  -1.4905999999999997  -3.5778000000000003 
C  0.8174999999999999  -3.3679000000000006  -4.2944 
H  -0.09299999999999997  -3.1129  -4.5074000000000005 
H  1.3425000000000002  -3.3081000000000005  -5.107600000000001 
C  0.8347000000000002  -4.7804  -3.7948000000000004 
H  1.7530000000000001  -5.0731  -3.6930000000000005 
H  0.40989999999999993  -5.3561  -4.449800000000001 
C  0.11390000000000011  -4.9193999999999996  -2.4632000000000005 
H  0.19330000000000025  -5.8355  -2.1525000000000003 
H  -0.8287999999999998  -4.7292000000000005  -2.5892000000000004 
C  0.6905000000000001  -3.9582  -1.3782000000000005 
H  0.15920000000000023  -4.0156  -0.5677000000000003 
H  1.6018  -4.2095  -1.1625000000000005 
C  0.6549  -2.5311000000000003  -1.9261000000000004 
H  -0.2854000000000001  -2.3213  -2.1029000000000004 
