43
unq_CSD-LIMRIJ-02-a
N  -0.10860000000000003  2.0991  0.12439999999999785 
N  -0.6146000000000003  0.4571000000000005  -1.8480000000000025 
N  -1.032  -0.31730000000000036  -2.8946000000000005 
C  0.2350999999999992  2.7071000000000005  1.1976999999999975 
H  0.5419999999999998  2.2418000000000005  1.9408999999999992 
C  0.12599999999999945  4.140300000000001  1.2007999999999974 
C  0.4930999999999992  4.8874  2.371699999999997 
H  0.7849999999999993  4.445900000000001  3.1361999999999988 
C  0.40939999999999976  6.2391  2.353499999999997 
H  0.6347999999999994  6.7197000000000005  3.1179999999999986 
C  -0.010800000000000587  6.926900000000001  1.2037999999999975 
H  -0.05830000000000002  7.8557  1.2067999999999977 
C  -0.3481000000000005  6.227200000000001  0.08139999999999858 
H  -0.6493000000000002  6.682300000000001  -0.6710000000000029 
C  -0.2475000000000005  4.8501  0.05409999999999826 
C  -0.6153000000000004  4.0554  -1.0350000000000001 
H  -0.9307000000000007  4.4714  -1.805500000000002 
C  -0.5288000000000004  2.6662999999999997  -1.0168 
C  -0.9200000000000008  1.7952000000000004  -2.0816000000000017 
C  -1.5260000000000002  1.8613999999999997  -3.2889000000000017 
C  -1.6018000000000003  0.5284000000000004  -3.734900000000003 
C  -2.2070000000000003  0.5164999999999997  -5.087900000000001 
C  -1.1652000000000005  1.1974  -5.997900000000001 
H  -1.4260000000000006  1.1295000000000002  -6.929200000000002 
H  -0.2914000000000003  0.7881999999999998  -5.8887 
C  -1.1383  2.6799  -5.539900000000003 
H  -1.4232000000000005  3.275900000000001  -6.252700000000001 
H  -0.2539000000000007  2.9431000000000003  -5.239500000000003 
C  -2.1574000000000004  2.6696999999999997  -4.3659 
H  -2.494  3.5492999999999997  -4.0928 
C  -3.2417000000000002  1.6643999999999997  -4.887600000000003 
C  -4.300400000000001  1.3554000000000004  -3.8714000000000013 
H  -4.895700000000001  2.1041999999999996  -3.7895000000000003 
H  -3.8873000000000006  1.1839000000000004  -3.022000000000002 
H  -4.795100000000001  0.5810000000000004  -4.147400000000001 
C  -3.9574000000000007  2.1382000000000003  -6.167800000000003 
H  -4.5761  2.8411999999999997  -5.949400000000001 
H  -4.4401  1.4028999999999998  -6.556100000000001 
H  -3.3118000000000003  2.4659000000000004  -6.795800000000002 
C  -2.6960000000000006  -0.8318000000000003  -5.5823 
H  -1.9540000000000006  -1.4329  -5.667300000000001 
H  -3.1233000000000004  -0.7230999999999996  -6.434800000000003 
H  -3.3288  -1.1917999999999997  -4.954400000000003 
