50
unq_CSD-LIPGID-02-a
N  0.6937999999999995  -1.9234  -1.1217999999999995 
N  1.9820000000000002  -1.1864999999999997  0.5068000000000001 
C  0.02200000000000024  -2.7676  -2.0980999999999996 
H  0.16800000000000015  -3.6334999999999997  -1.9006999999999996 
C  0.4007999999999994  -2.4962  -3.5581999999999994 
C  -0.08400000000000052  -3.3118999999999996  -4.5522 
H  -0.6297000000000006  -4.0525  -4.3172 
C  0.19949999999999957  -3.0841000000000003  -5.8725 
H  -0.1596000000000002  -3.6557  -6.542199999999999 
C  1.0000999999999998  -2.0305999999999997  -6.227499999999999 
H  1.2054999999999998  -1.8712  -7.142099999999999 
C  1.4954  -1.2233  -5.266699999999999 
H  2.0428999999999995  -0.48580000000000023  -5.5108 
C  1.2128999999999994  -1.4561000000000002  -3.9242999999999997 
H  1.5855999999999995  -0.8917999999999999  -3.2575999999999996 
C  -1.4790999999999999  -2.5281000000000002  -1.9405999999999994 
H  -1.6824000000000003  -1.5908999999999995  -2.1420999999999997 
H  -1.7470000000000003  -2.7303999999999995  -1.0202 
H  -1.9691  -3.1090999999999998  -2.5591999999999997 
C  1.8197999999999999  -2.1177  -0.46059999999999945 
C  2.8876  -3.2282  -0.6979999999999995 
C  3.0079000000000002  -4.1226  0.5645000000000007 
H  3.2517000000000005  -3.5690999999999997  1.3352000000000004 
H  3.6991000000000005  -4.8018  0.41800000000000015 
H  2.1491  -4.5621  0.7359 
C  4.214099999999999  -2.5415  -1.0819 
H  4.4621  -2.7989999999999995  -1.9940999999999995 
H  4.918399999999999  -2.8209999999999997  -0.46029999999999927 
H  4.103800000000001  -1.569  -1.0349999999999993 
C  2.605199999999999  -4.194599999999999  -1.8673999999999995 
H  1.8011999999999997  -4.718999999999999  -1.6707999999999998 
H  3.3687999999999994  -4.798299999999999  -1.9832999999999998 
H  2.4676  -3.6803  -2.6896999999999998 
C  3.0736999999999997  -1.0691999999999995  1.4787000000000008 
H  3.7550999999999997  -1.7736  1.2797 
C  2.5727  -1.2668999999999997  2.896600000000001 
C  1.4829999999999997  -0.5934999999999997  3.3957999999999995 
H  1.0244999999999997  0.025300000000000544  2.838800000000001 
C  1.0401999999999996  -0.7979000000000003  4.689400000000001 
H  0.2751999999999999  -0.3362999999999996  5.011000000000001 
C  1.7147999999999994  -1.6754999999999995  5.510400000000001 
H  1.4245  -1.8025000000000002  6.4069 
C  2.779799999999999  -2.3522  5.0511 
H  3.2403000000000004  -2.9543  5.6236 
C  3.218799999999999  -2.1696  3.7219999999999995 
H  3.9577999999999998  -2.6678999999999995  3.3931000000000004 
C  3.7389  0.3009000000000004  1.3611000000000004 
H  4.058800000000001  0.4299999999999997  0.44290000000000074 
H  4.496300000000001  0.3506  1.9802 
H  3.0888999999999998  0.9996000000000009  1.5813000000000006 
