32
unq_CSD-LIPLEC-02-a
N  0.3119999999999994  0.9447999999999999  2.4371 
N  -1.2941000000000003  1.9458000000000002  1.1433 
C  -0.4732000000000003  1.9667000000000003  2.1733 
H  -0.4460000000000006  2.7331000000000003  2.7345 
C  1.5055999999999994  1.2149999999999999  3.3251 
C  1.7569  0.24330000000000007  4.2933 
C  2.8038999999999996  0.4924999999999997  5.2137 
H  2.9714  -0.13569999999999993  5.9053 
C  3.5703000000000005  1.6128  5.1339 
H  4.2801  1.7363999999999997  5.7563 
C  3.3378000000000005  2.5823  4.1656 
H  3.8676000000000004  3.3697  4.1178 
C  2.3096999999999994  2.3583  3.2719 
H  2.1422  3.0053  2.5909 
C  0.8836999999999993  -0.9293  4.4157 
H  -0.0398000000000005  -0.6360999999999999  4.554 
H  1.1726  -1.4737  5.1765 
H  0.9359999999999999  -1.4632999999999998  3.5911 
C  -2.1296000000000004  3.0849  0.9949 
C  -3.1766000000000005  3.3278  1.9051 
C  -3.9702  4.454400000000001  1.728 
H  -4.6654  4.6366000000000005  2.3515 
C  -3.7734000000000005  5.308699999999999  0.6719 
H  -4.3325000000000005  6.0688  0.5639 
C  -2.7641000000000004  5.061599999999999  -0.2325 
H  -2.6301  5.6459  -0.9683 
C  -1.9474000000000005  3.9539  -0.0644 
H  -1.2480000000000002  3.7905999999999995  -0.6863 
C  -3.4509000000000003  2.3834  3.0474 
H  -2.7348000000000003  2.4546  3.7134 
H  -3.4907000000000004  1.4641000000000002  2.7079 
H  -4.3074  2.6158  3.4634 
