82
unq_CSD-LISFUQ-02-a
N  0.9638  1.7223999999999995  -0.5366 
N  -0.9637999999999998  1.7223999999999995  0.5367000000000002 
C  0.0  2.4946  0.0 
C  1.3124  4.5705  0.025099999999999678 
H  1.9981  3.8494  0.12939999999999996 
C  1.7029  5.337  -1.2348 
H  1.62  4.749099999999999  -2.0140000000000002 
H  2.6292999999999997  5.6456  -1.1563000000000003 
H  1.1101  6.109399999999999  -1.3432 
C  1.4788000000000001  5.484399999999999  1.2449999999999997 
H  1.2415  4.9909  2.0571999999999995 
H  0.8922000000000001  6.263999999999999  1.1515999999999997 
H  2.4112999999999998  5.7821  1.3048999999999995 
C  1.7853  2.0549999999999997  -1.6447000000000003 
C  3.1872  2.0115  -1.4945 
C  3.9934000000000003  2.2859  -2.5951000000000004 
H  4.9384  2.2588999999999997  -2.4995000000000003 
C  3.4442000000000004  2.5976999999999997  -3.8244000000000002 
H  4.0084  2.8099  -4.5583 
C  2.0733  2.5996999999999995  -3.9822 
H  1.7026  2.7950999999999997  -4.8346 
C  1.2208  2.3217999999999996  -2.9159 
C  -0.2870999999999999  2.2287999999999997  -3.1339 
H  -0.7333000000000001  2.4908  -2.2775 
C  -0.8152000000000001  3.1552999999999995  -4.2339 
H  -1.7859999999999998  3.0468  -4.3139 
H  -0.3898999999999999  2.9267000000000003  -5.087 
H  -0.6078999999999999  4.0846  -4.0057 
C  -0.6747000000000001  0.7811999999999997  -3.4304 
H  -1.6436  0.7242999999999999  -3.5697 
H  -0.4192  0.21279999999999966  -2.6736000000000004 
H  -0.2098  0.4775999999999998  -4.2373 
C  3.8422  1.6600000000000001  -0.16740000000000022 
H  3.1151999999999997  1.4578999999999995  0.4872000000000001 
C  4.7067  0.4068999999999998  -0.30500000000000016 
H  5.1155  0.19629999999999992  0.5605999999999995 
H  5.4101  0.5663999999999998  -0.9695 
H  4.149  -0.3448000000000002  -0.5941000000000001 
C  4.6598  2.8297  0.3889 
H  5.0695  2.5681000000000003  1.2394000000000003 
H  4.0713  3.6010999999999997  0.5334999999999996 
H  5.3621  3.0714999999999995  -0.25070000000000014 
N  0.0  3.8778999999999995  0.0 
C  -1.3124  4.5705  -0.025100000000000122 
H  -1.9980999999999998  3.8494  -0.12939999999999996 
C  -1.7028999999999999  5.337  1.2347999999999995 
H  -1.6199999999999999  4.749099999999999  2.014 
H  -2.6292999999999997  5.6456  1.1564 
H  -1.1100999999999999  6.109399999999999  1.3432 
C  -1.4787000000000001  5.484399999999999  -1.245 
H  -1.2415  4.9909  -2.0571 
H  -0.8922000000000001  6.263999999999999  -1.1515 
H  -2.4112  5.7821  -1.3049 
C  -1.7853  2.0549999999999997  1.6447999999999996 
C  -3.1871  2.0115  1.4945 
C  -3.9932999999999996  2.2859  2.5951 
H  -4.9383  2.2588999999999997  2.4995999999999996 
C  -3.4440999999999997  2.5976999999999997  3.8244000000000002 
H  -4.008299999999999  2.8099  4.558299999999999 
C  -2.0732  2.5996999999999995  3.9822 
H  -1.7025  2.7950999999999997  4.8346 
C  -1.2207000000000001  2.3217999999999996  2.916 
C  0.2872000000000001  2.2287999999999997  3.134 
H  0.7333000000000001  2.4908  2.2776 
C  0.8153  3.1552999999999995  4.2339 
H  1.7861  3.0468  4.314 
H  0.3899  2.9267000000000003  5.087 
H  0.6079  4.0846  4.005699999999999 
C  0.6748000000000001  0.7811999999999997  3.4304 
H  1.6436  0.7242999999999999  3.5696999999999997 
H  0.4192  0.21279999999999966  2.6736999999999997 
H  0.20989999999999998  0.4775999999999998  4.237299999999999 
C  -3.8420999999999994  1.6600000000000001  0.16740000000000022 
H  -3.1151  1.4578999999999995  -0.4871000000000003 
C  -4.7067  0.4068999999999998  0.3050999999999999 
H  -5.1155  0.19629999999999992  -0.5606 
H  -5.41  0.5663999999999998  0.9694999999999996 
H  -4.149  -0.3448000000000002  0.5942000000000003 
C  -4.6598  2.8297  -0.3889 
H  -5.0694  2.5681000000000003  -1.2394000000000003 
H  -4.0713  3.6010999999999997  -0.5334000000000003 
H  -5.3621  3.0714999999999995  0.25079999999999947 
