56
unq_CSD-PAHQAS-02-a
N  -0.9036  -1.9648999999999996  -0.4433999999999987 
N  -1.5652  -0.4458999999999995  1.4204000000000008 
C  -1.7831000000000001  -2.5308999999999995  0.4242000000000008 
C  -2.2952  -3.8192999999999997  0.22780000000000022 
H  -2.0501  -4.2093  -0.6027999999999984 
C  -3.0936  -4.631799999999999  1.017900000000001 
H  -3.2638  -5.495799999999999  0.6640000000000015 
C  -3.6774  -4.3754  2.2388999999999992 
H  -4.1887  -5.076  2.628000000000002 
C  -3.5881  -3.1988999999999996  2.9475 
H  -4.0539  -3.1944  3.7744000000000018 
C  -2.9247  -2.0173999999999994  2.6395999999999997 
H  -3.0332  -1.3307999999999995  3.2875999999999994 
C  -2.1224  -1.6554999999999995  1.5454000000000008 
C  -0.5949999999999998  -2.7223999999999995  -1.6395999999999997 
C  -1.331  -2.4711999999999996  -2.7993999999999986 
C  -0.9509999999999996  -3.1233999999999993  -3.9772999999999996 
H  -1.4354  -2.9608999999999996  -4.778799999999999 
C  0.11439999999999984  -3.9992999999999994  -3.997 
H  0.3712  -4.4181  -4.810799999999999 
C  0.7996999999999996  -4.2627  -2.843 
H  1.5235000000000003  -4.878399999999999  -2.861799999999999 
C  0.4613000000000005  -3.6501999999999994  -1.6457999999999995 
C  -2.5282  -1.5240999999999998  -2.825899999999999 
H  -2.6363  -1.1376999999999997  -1.9108 
C  -2.3247999999999998  -0.3744999999999994  -3.801499999999999 
H  -3.1127000000000002  0.20720000000000027  -3.7883999999999993 
H  -2.1976  -0.7312999999999996  -4.705499999999999 
H  -1.5339  0.1399000000000008  -3.5383999999999993 
C  -3.8116  -2.2670999999999997  -3.179499999999999 
H  -4.5616  -1.6361999999999997  -3.1888999999999985 
H  -3.9793  -2.9654  -2.510399999999999 
H  -3.7184  -2.6779999999999995  -4.062799999999999 
C  1.2145000000000001  -4.0005  -0.3771999999999984 
H  0.8864000000000001  -3.3941999999999997  0.34630000000000116 
C  2.7309  -3.7737  -0.5237999999999996 
H  2.8964999999999996  -2.8530999999999995  -0.8132999999999999 
H  3.0912999999999995  -4.3956  -1.1890999999999998 
H  3.1690999999999994  -3.9285999999999994  0.3388000000000009 
C  0.9549000000000003  -5.4375  0.07570000000000121 
H  -0.010299999999999976  -5.581199999999999  0.1678000000000015 
H  1.3931000000000004  -5.5901  0.9384000000000015 
H  1.3152999999999997  -6.0594  -0.589599999999999 
C  -1.8093  0.5948000000000002  2.4397 
H  -1.1107  1.2895000000000003  2.353600000000002 
H  -1.7136  0.18480000000000008  3.336499999999999 
C  -3.158  1.2596000000000007  2.3588000000000005 
H  -3.8682999999999996  0.5777000000000001  2.466300000000002 
H  -3.2667  1.6779000000000002  1.4684000000000008 
C  -3.3062  2.3290000000000006  3.445500000000001 
H  -3.2188  1.8957000000000006  4.330700000000002 
H  -2.5646  2.9779  3.3553000000000015 
C  -4.6055  3.0745000000000005  3.402300000000002 
H  -4.6258  3.7368000000000006  4.1240000000000006 
H  -5.3475  2.4458  3.515100000000002 
H  -4.692  3.5303000000000004  2.5378000000000025 
