72
unq_CSD-LUSPEV-02-a
N  -0.16420000000000012  1.8554000000000004  0.5133999999999999 
N  -1.8951999999999996  -0.28800000000000026  -0.5219000000000005 
C  -1.2985999999999995  2.5755  0.3595999999999995 
C  -1.3270999999999997  3.9912  0.5116999999999994 
H  -0.5156000000000001  4.4369000000000005  0.6785999999999994 
C  -2.4747  4.7435  0.42829999999999924 
H  -2.4328999999999996  5.6758  0.5427999999999997 
C  -3.7169  4.1244  0.17159999999999975 
H  -4.5049  4.6362  0.13559999999999928 
C  -3.7588999999999997  2.8185000000000002  -0.016500000000000625 
H  -4.585299999999999  2.4047  -0.18660000000000032 
C  -2.5561999999999996  2.0081999999999995  0.03419999999999934 
C  -2.7886999999999995  0.6688000000000001  -0.3371000000000004 
H  -3.6868  0.4269999999999996  -0.46960000000000024 
C  1.0168  2.567  0.9418999999999995 
C  2.0280000000000005  2.8770999999999995  0.006399999999999295 
C  3.1493  3.5648  0.4217999999999993 
H  3.8064999999999998  3.7950999999999997  -0.20950000000000024 
C  3.3315  3.9223  1.7416999999999998 
H  4.1114999999999995  4.3709  2.0131999999999994 
C  2.3450000000000006  3.6089  2.6543 
H  2.4672  3.8493000000000004  3.5554999999999994 
C  1.1908000000000003  2.9568000000000003  2.2912 
C  -2.4164  -1.5114  -1.0927000000000002 
C  -2.4705999999999997  -2.6497  -0.3109000000000002 
C  -2.9201999999999995  -3.8324  -0.8850000000000002 
H  -2.9638  -4.6138  -0.36490000000000045 
C  -3.3020999999999994  -3.8742  -2.2098000000000004 
H  -3.5917999999999997  -4.6808  -2.5941 
C  -3.2548999999999997  -2.7525  -2.9474 
H  -3.5283999999999995  -2.7951  -3.8453000000000004 
C  -2.8196999999999997  -1.5268000000000002  -2.4404000000000003 
C  1.8653000000000004  2.5328999999999997  -1.4672000000000005 
H  1.2476000000000003  1.7622  -1.5310000000000001 
C  3.1766000000000005  2.1345  -2.1476000000000006 
H  3.571900000000001  1.3861999999999997  -1.6733000000000002 
H  3.7897  2.8861999999999997  -2.1329000000000002 
H  3.0010000000000003  1.8788999999999998  -3.0652000000000004 
C  1.2312000000000003  3.6969000000000003  -2.2212000000000005 
H  0.38890000000000047  3.9318999999999997  -1.8042000000000002 
H  1.0741000000000005  3.4376999999999995  -3.1437000000000004 
H  1.8286000000000007  4.461200000000001  -2.1983000000000006 
C  0.1253000000000002  2.7249999999999996  3.3542999999999994 
H  -0.5915999999999997  2.1696999999999997  2.9600999999999997 
C  0.6718999999999999  2.0037000000000003  4.5695 
H  1.0482000000000005  1.1519000000000004  4.2964 
H  -0.04449999999999932  1.8532000000000002  5.2057 
H  1.3630000000000004  2.5445  4.9833 
C  -0.49599999999999955  4.0655  3.8154999999999992 
H  -0.8750999999999998  4.526599999999999  3.0516999999999994 
H  0.19090000000000007  4.6191  4.2195 
H  -1.1934999999999998  3.8914999999999997  4.4665 
C  -2.1146999999999996  -2.6275  1.1724999999999994 
H  -1.5293999999999999  -1.8437000000000001  1.3213 
C  -3.381  -2.4059  1.9853999999999994 
H  -3.8310999999999997  -1.6064  1.673 
H  -3.1484999999999994  -2.3006  2.9224999999999994 
H  -3.9692999999999996  -3.1697  1.8822999999999999 
C  -1.3670999999999998  -3.8505000000000003  1.673 
H  -0.5527999999999995  -3.9646  1.1578 
H  -1.9273999999999996  -4.6365  1.5698999999999996 
H  -1.1447999999999996  -3.732  2.6101 
C  -2.8110999999999997  -0.30600000000000005  -3.3612 
H  -2.2544999999999997  0.3923000000000001  -2.9343000000000004 
C  -4.2212  0.25669999999999993  -3.5264 
H  -4.5911  0.4626999999999999  -2.6530000000000005 
H  -4.7810999999999995  -0.4003000000000001  -3.9680000000000004 
H  -4.1861  1.0650000000000004  -4.0612 
C  -2.2268  -0.5853000000000002  -4.753 
H  -1.3241999999999998  -0.9275000000000002  -4.6614 
H  -2.2108999999999996  0.23609999999999998  -5.2682 
H  -2.7769999999999997  -1.2429999999999999  -5.207700000000001 
