39
unq_CSD-LUYXEJ-02-a
N  1.8411  -0.8105  -0.49540000000000006 
N  0.9807000000000001  0.3135  1.7763 
Si  0.39460000000000006  1.432  2.9618 
C  2.165  -1.4326999999999999  -1.6222999999999996 
H  1.5681  -1.3753  -2.3600999999999996 
C  3.3432  -2.1697  -1.7729999999999997 
H  3.5454  -2.5970999999999997  -2.5974999999999997 
C  4.1973  -2.2643  -0.7172000000000001 
H  5.005800000000001  -2.7539  -0.8079999999999998 
C  3.8903  -1.6406  0.5101000000000004 
C  4.6960999999999995  -1.7422  1.6652000000000005 
H  5.5197  -2.2162  1.6379000000000001 
C  4.2783999999999995  -1.1527  2.8186999999999998 
H  4.825  -1.2202  3.593000000000001 
C  3.0652  -0.4475  2.9019000000000004 
H  2.8191  -0.0549  3.7306 
C  2.2084  -0.3032  1.8035000000000005 
C  2.6767000000000003  -0.9176  0.5893000000000006 
C  -1.3942999999999999  1.8069  2.545 
H  -1.9438999999999997  1.0141  2.7212000000000005 
H  -1.4653999999999998  2.0489  1.5979999999999999 
H  -1.7092999999999998  2.5524  3.0981999999999994 
C  0.4083000000000001  0.7643000000000001  4.722600000000001 
H  0.2036  -0.1946  4.7101999999999995 
H  -0.26459999999999995  1.2344  5.2548 
H  1.2934  0.9039  5.1192 
C  1.3184  3.0916  2.9177 
C  1.2555  3.6501  1.5002000000000004 
H  1.6984000000000001  4.5236  1.4723000000000006 
H  0.31810000000000005  3.7494  1.2309 
H  1.7088  3.0349  0.8858000000000006 
C  2.7747  2.9667  3.3754999999999997 
H  3.2083000000000004  3.8441  3.3257000000000003 
H  3.2475  2.3352  2.793 
H  2.7998000000000003  2.6424  4.2992 
C  0.6219  4.1024  3.8563 
H  1.116  4.9488  3.848300000000001 
H  0.6048  3.7424  4.768 
H  -0.2953999999999999  4.2568  3.5470999999999995 
