23
unq_CSD-MAQWUX-02-a
N  1.2146  0.7576999999999998  -1.3524000000000003 
N  -1.3576000000000001  -0.49160000000000004  -1.3096000000000003 
C  2.0052999999999996  1.4785999999999984  -3.5519000000000003 
H  2.079  2.4207  -3.293 
H  1.7151999999999998  1.4183999999999983  -4.4854 
H  2.8771999999999998  1.0423999999999989  -3.4525 
C  0.9866000000000001  0.7845999999999993  -2.6585 
C  -0.1413000000000002  0.22919999999999874  -3.2758000000000003 
H  -0.16680000000000028  0.2538999999999998  -4.2256 
C  -1.2326000000000001  -0.35740000000000016  -2.6321000000000003 
C  -2.4276  -0.8773  -3.4044000000000003 
H  -3.0109  -0.14140000000000086  -3.7184 
H  -2.154  -1.4349000000000007  -4.1745 
C  -3.0725000000000002  -1.6744000000000012  -2.3562000000000003 
H  -2.7944  -2.621900000000001  -2.4319 
H  -4.0571  -1.6293000000000006  -2.4523 
C  -2.6381  -1.0932000000000013  -0.9441000000000002 
H  -3.2799  -0.4175000000000004  -0.6116000000000001 
H  -2.5298  -1.8087000000000009  -0.26800000000000024 
C  2.4829000000000003  1.3678999999999988  -0.9216000000000002 
H  2.5509999999999997  2.2734999999999985  -1.2906000000000002 
H  3.2319  0.8264999999999993  -1.2456000000000003 
H  2.5089  1.4108999999999998  0.05719999999999992 
