26
unq_CSD-MAQXAE-02-a
N  1.5025  -1.274  0.10740000000000016 
N  0.7524000000000001  1.1917  1.3221000000000007 
C  3.3345000000000002  -2.4862  1.2265000000000006 
H  2.8477  -3.3135000000000003  1.2013000000000007 
H  3.8064  -2.419  2.0586 
H  3.9609  -2.4627  0.5 
C  2.368  -1.3275000000000001  1.0973000000000006 
C  2.4528  -0.3349  2.0905000000000005 
H  3.0589  -0.48229999999999995  2.7801 
C  1.7156  0.8489999999999998  2.1409000000000002 
C  1.9756  1.9267000000000003  3.1761 
H  2.0897  1.545  4.0603 
H  2.7593  2.4501  2.9512 
C  0.7168  2.7605000000000004  3.0972 
H  0.9028  3.6948  3.2784000000000004 
H  0.04459999999999997  2.442  3.7197000000000005 
C  0.2743  2.5555000000000003  1.6509 
H  -0.6915  2.6121999999999996  1.5721000000000007 
H  0.678  3.2158999999999995  1.0671 
C  1.5237  -2.3104  -0.9294999999999995 
H  0.901  -3.0145  -0.6878999999999995 
H  2.4104  -2.6993  -0.9730999999999996 
C  1.1525  -1.7626  -2.2885 
H  1.2058  -2.4643  -2.9411999999999994 
H  1.7595  -1.0585  -2.5250999999999997 
H  0.25760000000000005  -1.4174  -2.26 
