51
unq_CSD-BAXZEI-02-a
N  -0.31899999999999984  -0.5896999999999999  -1.8809 
N  1.076  1.5581999999999998  -0.6643999999999997 
C  0.27670000000000017  -1.0682  -4.2191 
H  1.0909  -1.5888  -4.3847 
H  0.11790000000000012  -0.4615  -4.9712 
H  -0.4855999999999999  -1.6768999999999998  -4.1234 
C  0.44230000000000014  -0.2631999999999999  -2.9488999999999996 
C  1.3598  0.8052999999999999  -2.9512 
C  1.5113000000000003  1.7570999999999999  -1.9129 
C  2.144  3.0928  -2.2487 
H  1.7843  3.7834999999999996  -1.6526999999999998 
H  1.9408000000000003  3.3255000000000003  -3.1787 
H  3.1146000000000003  3.0338999999999996  -2.1319 
C  2.1489000000000003  1.0318  -4.2355 
H  2.4094  0.16670000000000007  -4.6165 
H  2.9527  1.5562999999999998  -4.0369 
H  1.5928  1.5171000000000001  -4.8795 
C  -1.508  -1.3561  -2.1262 
C  -1.5162  -2.7462  -1.9446999999999997 
C  -2.6791  -3.441  -2.2542999999999997 
H  -2.6944  -4.3873999999999995  -2.1664999999999996 
C  -3.815  -2.7807  -2.6866 
H  -4.597799999999999  -3.2719  -2.9071 
C  -3.8063  -1.4017  -2.7952999999999997 
H  -4.5951  -0.9488000000000001  -3.0696999999999997 
C  -2.6645  -0.6705000000000001  -2.5092999999999996 
C  -0.3014999999999999  -3.4668  -1.4333999999999998 
H  0.49450000000000016  -3.1369  -1.8983999999999996 
H  -0.39959999999999984  -4.4285  -1.5972999999999997 
H  -0.20819999999999994  -3.3071  -0.47089999999999943 
C  -2.6677  0.8361000000000001  -2.578 
H  -2.5216  1.2040000000000002  -1.6820999999999997 
H  -3.532  1.1453000000000002  -2.9225999999999996 
H  -1.9512999999999998  1.1375000000000002  -3.1753 
C  1.3001  2.5425  0.3559000000000001 
C  2.5391  2.5988  1.0079000000000002 
C  2.6813000000000002  3.4791000000000003  2.083 
H  3.5145  3.5290000000000004  2.5362 
C  1.6354000000000002  4.279  2.5009000000000006 
H  1.7480000000000002  4.8657  3.2403999999999993 
C  0.4276000000000002  4.2193000000000005  1.8368000000000002 
H  -0.28959999999999986  4.7737  2.1227 
C  0.2398  3.3627  0.7560000000000002 
C  3.6963999999999997  1.7426  0.5750000000000002 
H  3.4055  0.8087  0.5084 
H  4.4193  1.8127  1.2332999999999998 
H  4.0195  2.0475  -0.2979000000000003 
C  -1.0745999999999998  3.3295999999999997  0.02740000000000009 
H  -0.9144999999999999  3.3862  -0.9380999999999995 
H  -1.6254999999999997  4.088800000000001  0.31289999999999996 
H  -1.5406  2.4918  0.23150000000000048 
