62
unq_CSD-BELGOQ-02-a
N  0.5590999999999999  1.6903999999999986  0.9171000000000005 
N  1.7861000000000002  0.6979999999999986  -0.5873999999999997 
C  2.8110999999999997  2.7631999999999977  0.5749000000000004 
C  2.3594999999999997  4.210899999999999  0.4773000000000005 
C  2.6617999999999995  4.842499999999998  1.6286000000000005 
C  3.1884999999999994  3.8659  2.6027000000000005 
C  3.2436999999999996  2.6522000000000006  2.0300000000000002 
C  4.0950999999999995  2.620799999999999  -0.2688999999999995 
H  4.746300000000001  3.2966999999999977  0.011900000000000688 
H  3.8788  2.7500999999999998  -1.2155999999999998 
H  4.4746  1.7272999999999996  -0.13870000000000005 
C  1.7283  4.735900000000001  -0.7645999999999997 
H  1.367  5.631399999999999  -0.5941999999999998 
H  1.0024999999999995  4.1373  -1.0382999999999996 
H  2.3980999999999995  4.7835  -1.4785999999999997 
C  2.4745  6.297999999999998  1.9427000000000003 
H  2.207  6.777999999999999  1.1307 
H  3.3164  6.668699999999998  2.2781000000000002 
H  1.7783999999999995  6.396599999999999  2.625 
C  3.5759999999999996  4.2089  4.009900000000001 
H  3.7108999999999996  3.3842  4.5215000000000005 
H  2.8655  4.739799999999999  4.426200000000001 
H  4.4079999999999995  4.727599999999999  4.0012 
C  3.7333  1.3618999999999986  2.598 
H  4.597700000000001  1.1344999999999992  2.1943 
H  3.0854999999999997  0.6534999999999993  2.4039 
H  3.8389999999999995  1.4504000000000001  3.568500000000001 
C  0.04820000000000002  2.5744000000000007  1.9527999999999999 
H  0.6075999999999997  3.403600000000001  1.9922000000000004 
C  0.04319999999999968  1.8980999999999995  3.3199999999999994 
H  0.9710000000000001  1.6713999999999984  3.5798999999999994 
H  -0.4758  1.056799999999999  3.2693000000000003 
C  -0.5725000000000002  2.8112999999999992  4.379500000000001 
H  -0.5910000000000002  2.3370999999999995  5.247700000000001 
H  -0.008100000000000218  3.6174  4.4853 
C  -1.9901000000000002  3.2314000000000007  4.007600000000001 
H  -2.3259  3.882200000000001  4.674 
H  -2.5852000000000004  2.4391  4.025900000000001 
C  -2.0282  3.8625000000000007  2.6246 
H  -1.5463000000000002  4.727599999999999  2.6441 
H  -2.9683  4.0425  2.3715 
C  -1.3881000000000001  2.9473999999999982  1.5838 
H  -1.9267  2.120899999999999  1.5005000000000006 
H  -1.3916  3.403600000000001  0.7057000000000002 
C  2.5535999999999994  0.4377999999999993  -1.7940999999999998 
H  3.5241  0.6097999999999999  -1.6216 
C  2.3389999999999995  -1.0451000000000015  -2.1189999999999998 
H  2.7142  -1.5937000000000001  -1.3851999999999998 
H  1.367  -1.2293000000000003  -2.1685999999999996 
C  2.9938000000000002  -1.4577000000000009  -3.4318999999999997 
H  3.9763  -1.3580000000000005  -3.3579 
H  2.7946999999999997  -2.41  -3.6151999999999997 
C  2.4817  -0.6001000000000012  -4.582 
H  1.5141  -0.7652999999999999  -4.7131 
H  2.9516  -0.8527000000000005  -5.414499999999999 
C  2.7157999999999998  0.8806999999999992  -4.2972 
H  2.3293  1.421199999999999  -5.0314 
H  3.6886  1.0615999999999985  -4.2652 
C  2.0751  1.2965999999999998  -2.9722999999999997 
H  1.0906000000000002  1.2243999999999993  -3.0492 
H  2.2954999999999997  2.244799999999998  -2.7899 
C  1.7111  1.7352999999999987  0.2591000000000001 
