36
unq_CSD-BEMXIC-02-a
N  0.6015  1.4167999999999998  -1.2397 
N  0.10809999999999997  1.1075  1.5872999999999995 
C  0.8361000000000001  1.3336000000000001  -2.5647 
C  1.6835  2.3930999999999996  -2.999 
C  1.9798  3.1479  -1.8855000000000002 
C  1.3004  2.5452000000000004  -0.7825000000000002 
C  1.2848000000000002  2.9745  0.5433999999999997 
H  1.7358  3.7938  0.7120000000000002 
C  0.7026  2.3726000000000003  1.6523999999999996 
C  0.6285000000000001  2.8418  3.0026999999999995 
C  0.0014000000000000679  1.8495  3.7342 
C  -0.3023999999999999  0.8012000000000001  2.8248 
C  0.268  0.24469999999999992  -3.4162 
H  0.08050000000000002  -0.5405  -2.8603 
H  0.9137  0.0040999999999997705  -4.1133 
H  -0.5624999999999999  0.5550999999999999  -3.8342 
C  2.1637  2.6132999999999997  -4.4044 
H  2.1687  3.5736999999999997  -4.6016 
H  1.565  2.1544999999999996  -5.0295000000000005 
H  3.0717  2.2565999999999997  -4.4996 
C  2.8853999999999997  4.3385  -1.8435000000000001 
H  3.8087  4.0537  -2.0085 
H  2.8270999999999997  4.7625  -0.9621 
H  2.6143  4.9807  -2.5330000000000004 
C  1.0956000000000001  4.1719  3.5117 
H  0.3387  4.7934  3.5439000000000003 
H  1.7845  4.5271  2.9119999999999995 
H  1.4702000000000002  4.0644  4.410500000000001 
C  -0.33629999999999993  1.8793999999999995  5.198599999999999 
H  0.3246  2.4231999999999996  5.6754999999999995 
H  -0.3275  0.9674  5.554699999999999 
H  -1.2280000000000002  2.2695  5.32 
C  -1.0190000000000001  -0.48940000000000006  3.11 
H  -1.9738000000000002  -0.3821000000000001  2.9147000000000003 
H  -0.9036000000000001  -0.7253000000000001  4.053599999999999 
H  -0.648  -1.1996  2.5471 
