15
unq_CSD-PAWWEP-02-a
N  -0.1448999999999998  -1.5383999999999993  -1.3888 
N  1.7721  -1.3126999999999995  -0.3578999999999999 
C  -1.0716999999999999  -2.2059999999999995  -2.3006 
H  -1.9186999999999994  -1.7576999999999998  -2.2824999999999998 
H  -1.1880999999999995  -3.1188000000000002  -2.0262000000000002 
H  -0.7155999999999993  -2.1835000000000004  -3.1921 
C  1.1003000000000007  -2.0382999999999996  -1.285 
C  1.7160000000000002  -3.1059  -1.9746000000000001 
H  1.2770000000000001  -3.58  -2.6433 
C  2.9961  -3.3961000000000006  -1.6029 
H  3.418000000000001  -4.1283  -1.9957 
C  3.6903000000000006  -2.6576000000000004  -0.6722 
H  4.5791  -2.847899999999999  -0.4748 
C  3.0336999999999996  -1.6384000000000007  -0.047900000000000054 
H  3.4749999999999996  -1.1546000000000003  0.6127 
