30
unq_CSD-BIWYOY-02-a
N  2.4475  -0.2400000000000002  -0.38060000000000027 
N  1.0391999999999992  -1.278599999999999  -1.7858000000000005 
N  3.357899999999999  -1.905199999999999  -1.8447000000000005 
C  2.281599999999999  -1.1489999999999991  -1.3200000000000003 
C  3.7287  0.030100000000000904  0.26229999999999976 
H  4.4498999999999995  -0.4482999999999997  -0.2389000000000001 
C  3.7178000000000004  -0.4610000000000003  1.7004000000000001 
H  4.586599999999999  -0.2762999999999991  2.1152999999999995 
H  3.5481999999999996  -1.4261999999999997  1.7145000000000001 
H  3.0129  0.002100000000000435  2.1986 
C  3.9984  1.5274999999999999  0.2051999999999996 
H  4.883000000000001  1.7149999999999999  0.5836999999999994 
H  3.3148  2.0031  0.7204999999999995 
H  3.9727999999999994  1.828800000000001  -0.7277000000000005 
C  0.7492000000000001  -1.9148999999999994  -3.0701 
H  1.5348000000000006  -2.4609000000000005  -3.3622000000000005 
C  -0.4322999999999997  -2.7714  -2.9549000000000003 
H  -0.6204999999999998  -3.1884999999999994  -3.821 
H  -1.2018000000000004  -2.231399999999999  -2.6778000000000004 
H  -0.2663000000000011  -3.469199999999999  -2.2858 
C  0.470699999999999  -0.8055000000000003  -4.1047 
H  0.3163  -1.210799999999999  -4.984 
H  1.2416  -0.20350000000000001  -4.153300000000001 
H  -0.32370000000000054  -0.2995000000000001  -3.8347 
C  4.113999999999999  -2.7730999999999995  -0.9342000000000001 
H  3.8286999999999995  -2.8093000000000004  0.013999999999999346 
H  5.0892  -2.8589  -1.0797000000000003 
C  3.2132000000000005  -3.3543000000000003  -1.9454000000000002 
H  3.6244999999999994  -3.8057999999999996  -2.7243000000000004 
H  2.3644999999999996  -3.7561999999999998  -1.6310000000000002 
