58
unq_CSD-BUGNIC-02-a
N  0.7278000000000002  -1.6748000000000003  -0.8400999999999996 
N  -0.7276999999999996  -1.6748000000000003  0.8400999999999996 
C  1.061  -1.8964000000000003  -2.2023999999999972 
C  2.4159000000000006  -1.8597000000000001  -2.5742999999999974 
C  2.7553  -1.9094000000000002  -3.9217999999999975 
H  3.651300000000001  -1.8860000000000001  -4.1692 
C  1.7806000000000006  -1.9912000000000003  -4.895599999999998 
H  2.0182  -2.0358  -5.794599999999999 
C  0.44709999999999983  -2.007  -4.5258 
H  -0.20669999999999966  -2.0584000000000002  -5.184699999999999 
C  0.0600000000000005  -1.9493000000000003  -3.188799999999997 
C  3.4809  -1.7508000000000001  -1.5158999999999985 
H  3.4694000000000003  -2.5391000000000004  -0.966899999999999 
H  3.3125  -0.9783000000000004  -0.9703999999999979 
H  4.3408  -1.6654000000000002  -1.933799999999998 
C  -1.3961999999999999  -1.8368000000000002  -2.8276000000000003 
H  -1.5772999999999997  -0.9529000000000001  -2.4986999999999995 
H  -1.6081999999999996  -2.4826  -2.148699999999998 
H  -1.9331999999999998  -2.0047  -3.6042999999999985 
C  0.0  -2.4438000000000004  0.0 
C  1.1341999999999999  -4.5322000000000005  -0.6417999999999999 
H  1.5911  -3.8596000000000004  -1.1921999999999997 
C  2.1764  -5.0239  0.352800000000002 
H  2.4007000000000005  -4.3148  0.9600000000000009 
H  2.9642  -5.3016000000000005  -0.12129999999999797 
H  1.8218000000000005  -5.7653  0.8491 
C  0.7171000000000003  -5.6349  -1.6083999999999996 
H  0.30540000000000056  -6.3506  -1.1193999999999988 
H  1.4916  -5.966  -2.068999999999999 
H  0.0918000000000001  -5.2818000000000005  -2.2456999999999994 
N  0.0  -3.8183000000000002  0.0 
C  -1.0609000000000002  -1.8964000000000003  2.2025000000000006 
C  -2.4158999999999997  -1.8597000000000001  2.574300000000001 
C  -2.7552999999999996  -1.9094000000000002  3.921800000000001 
H  -3.6512  -1.8860000000000001  4.1693 
C  -1.7805999999999997  -1.9912000000000003  4.8957000000000015 
H  -2.0181  -2.0358  5.794700000000002 
C  -0.44709999999999983  -2.007  4.5259 
H  0.20670000000000055  -2.0584000000000002  5.184700000000003 
C  -0.05989999999999984  -1.9493000000000003  3.1888000000000005 
C  -3.4809  -1.7508000000000001  1.515900000000002 
H  -3.4694  -2.5391000000000004  0.9670000000000023 
H  -3.3124  -0.9783000000000004  0.9704000000000015 
H  -4.3408  -1.6654000000000002  1.9339000000000013 
C  1.3963  -1.8368000000000002  2.8277 
H  1.5773000000000001  -0.9529000000000001  2.498800000000003 
H  1.6082  -2.4826  2.1488000000000014 
H  1.9333  -2.0047  3.604400000000002 
C  -1.1341  -4.5322000000000005  0.6418999999999997 
H  -1.5909999999999997  -3.8596000000000004  1.1921999999999997 
C  -2.1763  -5.0239  -0.35279999999999845 
H  -2.4006999999999996  -4.3148  -0.9599999999999973 
H  -2.9642  -5.3016000000000005  0.12130000000000152 
H  -1.8216999999999999  -5.7653  -0.8491 
C  -0.7169999999999996  -5.6349  1.608500000000003 
H  -0.3052999999999999  -6.3506  1.1194000000000024 
H  -1.4914999999999998  -5.966  2.0690000000000026 
H  -0.09169999999999945  -5.2818000000000005  2.2458000000000027 
