60
unq_CSD-BUJXUA-02-a
N  -1.045  -1.0682999999999998  1.4325999999999999 
N  1.1696999999999989  -1.7391  -0.33799999999999997 
C  -2.3808999999999987  -0.6426  1.7892000000000001 
C  -2.4664  0.4061  2.6976 
H  -1.6709999999999994  0.7869  3.0499 
C  -3.6960999999999995  0.9027  3.0979 
H  -3.741299999999999  1.6261  3.7133000000000003 
C  -4.8391  0.34940000000000004  2.6057 
H  -5.6867  0.6793000000000001  2.8805 
C  -4.760999999999999  -0.6877  1.7086000000000001 
H  -5.569599999999999  -1.0628  1.3821999999999999 
C  -3.552199999999999  -1.2179  1.2542 
C  -3.5648999999999997  -2.3592  0.21380000000000005 
C  -5.0017  -2.7805  -0.17079999999999998 
H  -5.4878  -3.0548  0.6351 
H  -4.964699999999999  -3.5294  -0.802 
H  -5.463899999999999  -2.0235  -0.5897 
C  -2.894499999999999  -1.8916  -1.08 
H  -1.9629999999999992  -1.6507999999999998  -0.8958999999999999 
H  -3.3697999999999997  -1.1091  -1.4307 
H  -2.9215  -2.6138  -1.741 
C  -2.8796999999999997  -3.6151  0.7539 
H  -1.9299999999999997  -3.4276  0.9105999999999999 
H  -2.9657999999999998  -4.3397  0.1003 
H  -3.303099999999999  -3.8813  1.5965 
C  -1.0434  -2.3603  3.5414 
H  -1.9431999999999992  -2.7122  3.3765 
H  -1.1008999999999993  -1.5905999999999998  4.146 
H  -0.4908000000000001  -3.056  3.9520999999999997 
C  -0.42299999999999827  -1.9278999999999997  2.2315 
C  0.8413000000000004  -2.4649  1.9460000000000002 
H  1.2719000000000023  -2.9159  2.662 
C  1.5527000000000015  -2.4194999999999998  0.7343 
C  2.8397000000000006  -3.225  0.71 
H  3.5726000000000013  -2.6590000000000003  0.39010000000000006 
H  2.7331000000000003  -3.9913  0.1084 
H  3.0426  -3.5445  1.6149 
C  1.9598000000000013  -1.8918  -1.5421 
C  2.8657000000000004  -0.8591  -1.7734 
H  2.945499999999999  -0.16799999999999993  -1.1265 
C  3.6496999999999993  -0.8047  -2.9075 
H  4.254899999999999  -0.08589999999999992  -3.0433 
C  3.5341000000000022  -1.8152  -3.8388 
H  4.056799999999999  -1.7965999999999998  -4.6334 
C  2.658999999999999  -2.85  -3.6104 
H  2.6014000000000017  -3.541  -4.2599 
C  1.8466000000000022  -2.9449  -2.4713 
C  0.9518000000000022  -4.2054  -2.3993 
C  1.8476999999999997  -5.4543  -2.3305000000000002 
H  2.4025  -5.413799999999999  -1.5246 
H  2.4235000000000007  -5.4867  -3.1229 
H  1.287700000000001  -6.2576  -2.3023 
C  0.10109999999999886  -4.2899  -3.6873 
H  -0.47809999999999775  -3.5016000000000003  -3.7475 
H  -0.4505999999999979  -5.098999999999999  -3.6618 
H  0.6933000000000007  -4.3223  -4.4681 
C  -0.025500000000000966  -4.254  -1.2357 
H  0.47109999999999985  -4.3454999999999995  -0.3958 
H  -0.6258999999999997  -5.0214  -1.345 
H  -0.5511999999999979  -3.4287  -1.2164 
