43
unq_CSD-BUZWUR-02-b
N  -0.3321000000000005  1.2592999999999996  1.6325000000000003 
N  -2.0252999999999997  -0.16159999999999997  0.15479999999999983 
N  -1.2359999999999989  2.1949000000000005  1.5497999999999994 
N  -2.7784999999999993  0.8954000000000004  0.24969999999999892 
N  -4.7204999999999995  5.542400000000001  0.05400000000000027 
C  -2.2752  2.0599000000000007  0.6988000000000003 
C  0.4151000000000007  1.2944999999999993  2.8518999999999988 
C  0.3521000000000001  2.3675999999999995  3.7448999999999995 
H  -0.18939999999999912  3.1218000000000004  3.5462999999999987 
C  1.0812999999999988  2.328900000000001  4.918199999999999 
H  1.0350000000000001  3.0671  5.5151 
C  1.881499999999999  1.2380999999999993  5.2516 
C  1.9282000000000004  0.1739999999999995  4.3652 
H  2.4658000000000015  -0.5809999999999995  4.572099999999999 
C  1.1978000000000009  0.19069999999999965  3.1712999999999987 
H  1.2376000000000005  -0.5521999999999991  2.5791000000000004 
C  2.692499999999999  1.2323000000000004  6.529399999999999 
H  3.616900000000001  1.4885000000000002  6.329699999999999 
H  2.6812000000000005  0.3343000000000007  6.920299999999999 
H  2.3069999999999986  1.8712999999999997  7.164299999999999 
C  -3.1388  3.2425999999999995  0.5328999999999997 
C  -4.3248999999999995  3.1822999999999997  -0.22419999999999973 
H  -4.601899999999999  2.3634000000000004  -0.6180000000000003 
C  -5.084999999999999  4.3321000000000005  -0.38970000000000127 
H  -5.915699999999999  4.255800000000001  -0.8448000000000011 
C  -3.5518  5.6  0.6959 
H  -3.2020999999999997  6.469200000000001  0.8570999999999991 
C  -2.7163000000000004  4.5182  0.9085000000000001 
H  -1.8630999999999993  4.643000000000001  1.3064999999999998 
C  -2.766499999999999  -1.3836999999999993  0.09089999999999954 
C  -4.1637  -1.3969000000000005  0.14379999999999882 
H  -4.6469000000000005  -0.5838000000000001  0.22519999999999918 
C  -4.833  -2.6014999999999997  0.07819999999999894 
H  -5.783099999999999  -2.6014999999999997  0.1166999999999998 
C  -4.164399999999999  -3.8202  -0.04260000000000019 
C  -2.780099999999999  -3.7898999999999994  -0.057299999999999685 
H  -2.2995  -4.6076  -0.11010000000000097 
C  -2.0760000000000005  -2.5912999999999995  0.0035999999999987153 
H  -1.1273999999999997  -2.5957  -0.014499999999999957 
C  -4.907299999999999  -5.122599999999999  -0.1629000000000005 
H  -4.2669999999999995  -5.8652999999999995  -0.15719999999999956 
H  -5.413399999999999  -5.1343  -1.0017000000000005 
H  -5.5245999999999995  -5.2177999999999995  0.5917999999999992 
