140
unq_CSD-PACJEL-02-a
N  1.892199999999999  -0.2380999999999993  0.8812999999999995 
N  1.112099999999998  -1.8072999999999997  -0.4574999999999996 
C  2.1293000000000006  -1.4512  0.3396999999999988 
C  3.3308  -2.3469999999999995  0.7530999999999999 
C  3.520199999999999  -3.6163999999999996  -0.08120000000000083 
H  4.307500000000001  -4.1044  0.2419999999999991 
H  3.650199999999998  -3.3725999999999994  -1.020900000000001 
H  2.7257999999999996  -4.183199999999999  0.0029000000000003467 
C  4.675699999999999  -1.6175999999999995  0.7274999999999991 
H  4.671299999999999  -0.9003999999999994  1.3964999999999996 
H  4.822399999999998  -1.2332999999999998  -0.1615000000000002 
H  5.394400000000001  -2.2509999999999994  0.9331999999999994 
C  3.0718999999999994  -2.7783999999999995  2.2070999999999987 
H  2.1799  -3.1759999999999993  2.2764000000000006 
H  3.1265  -1.9967999999999995  2.793899999999999 
H  3.744699999999998  -3.4371  2.4763 
C  2.835699999999999  0.6102000000000007  1.5261999999999993 
C  2.8058000000000014  0.7844999999999995  2.9183000000000003 
C  3.7697000000000003  1.6202000000000005  3.5177999999999994 
H  3.775199999999998  1.7117000000000004  4.4641 
C  4.706900000000001  2.3118  2.774099999999999 
C  4.627600000000001  2.2112999999999996  1.383799999999999 
H  5.2163  2.7365000000000013  0.8547999999999991 
C  3.7270000000000003  1.3768000000000011  0.7453000000000003 
C  1.7505999999999986  0.10410000000000075  3.762600000000001 
H  1.4106999999999985  -0.6789999999999994  3.2422999999999984 
C  0.5615999999999985  1.0373  4.011999999999999 
H  0.867799999999999  1.8373000000000008  4.4902 
H  -0.11120000000000019  0.5724  4.551899999999998 
H  0.16769999999999996  1.3011  3.1545000000000005 
C  2.275299999999998  -0.4272999999999998  5.091399999999998 
H  3.0360000000000014  -1.0229999999999997  4.9274000000000004 
H  1.5641999999999996  -0.9230999999999998  5.5495 
H  2.5623000000000005  0.32230000000000025  5.652199999999999 
C  3.7211  1.310500000000001  -0.7783999999999995 
H  3.398299999999999  0.3974000000000011  -1.0320999999999998 
C  5.106400000000001  1.4886999999999997  -1.4052000000000007 
H  5.076499999999999  1.220600000000001  -2.3473000000000006 
H  5.755500000000001  0.9307999999999996  -0.9275000000000002 
H  5.374600000000001  2.429500000000001  -1.3422 
C  2.7430999999999983  2.296000000000001  -1.3475000000000001 
H  1.8625000000000007  2.1525  -0.942400000000001 
H  2.6805999999999983  2.1708999999999996  -2.317400000000001 
H  3.0485000000000007  3.2074  -1.153500000000001 
C  5.8673  3.173300000000001  3.3484 
C  7.227999999999998  2.51  3.0470999999999986 
C  8.4006  3.1030999999999995  3.541400000000001 
H  8.3384  3.8971  4.060599999999999 
C  9.643  2.5570000000000004  3.2893999999999988 
H  10.421299999999999  2.9906000000000006  3.617800000000001 
C  9.767499999999998  1.3842999999999996  2.562800000000001 
H  10.623999999999999  1.0117000000000012  2.3884999999999987 
C  8.6284  0.7680000000000007  2.0970999999999993 
H  8.698799999999999  -0.044800000000000395  1.6113999999999997 
C  7.378899999999998  1.3217999999999996  2.3314000000000004 
H  6.607399999999998  0.8808000000000007  1.9962 
C  5.7516  4.5388  2.6304999999999996 
C  6.739999999999998  5.0656  1.8129000000000008 
H  7.5809  4.6273  1.7589999999999986 
C  6.524799999999999  6.2217  1.0686999999999998 
H  7.219100000000001  6.5664  0.5204000000000004 
C  5.308699999999998  6.867600000000001  1.1250999999999998 
H  5.156299999999998  7.6472999999999995  0.6025999999999989 
C  4.314599999999999  6.3766  1.943699999999998 
H  3.4792999999999985  6.827200000000001  2.001800000000001 
C  4.538  5.218500000000001  2.6872999999999987 
H  3.8461999999999996  4.8858  3.2460000000000004 
C  5.7865  3.2954000000000008  4.8923000000000005 
C  5.552900000000001  4.479100000000001  5.569899999999999 
H  5.3902  5.277100000000001  5.082399999999998 
C  5.5554999999999986  4.5091  6.9626 
H  5.400400000000001  5.332000000000001  7.412100000000001 
C  5.779499999999999  3.3673  7.7005 
H  5.775500000000001  3.396700000000001  8.650699999999999 
C  6.009999999999998  2.179400000000001  7.038400000000001 
H  6.156600000000001  1.3800000000000008  7.531599999999999 
C  6.026599999999998  2.1537000000000006  5.655599999999998 
H  6.2073  1.3338999999999999  5.213199999999999 
C  1.0254000000000012  -2.9423999999999992  -1.3216999999999999 
C  1.4728999999999992  -2.829999999999999  -2.6423000000000005 
C  1.354499999999998  -3.9232999999999993  -3.5054 
H  1.6767000000000003  -3.8404999999999996  -4.3948 
C  0.784399999999998  -5.1270999999999995  -3.1103000000000005 
C  0.3117999999999981  -5.2017  -1.7964000000000002 
H  -0.0876000000000019  -6.0108999999999995  -1.5010000000000012 
C  0.4023000000000003  -4.1396  -0.9040999999999997 
C  2.0950999999999986  -1.5440999999999994  -3.176 
H  2.124600000000001  -0.8853999999999997  -2.4238999999999997 
C  3.4987999999999992  -1.7251999999999992  -3.683 
H  4.056100000000001  -2.1132  -2.9731000000000005 
H  3.8663999999999987  -0.8544999999999998  -3.9465000000000003 
H  3.4930999999999983  -2.3247  -4.4565 
C  1.2368999999999986  -0.9419999999999993  -4.2865 
H  1.6204999999999998  -0.08729999999999905  -4.570400000000001 
H  0.32539999999999836  -0.7970999999999995  -3.953900000000001 
H  1.2102000000000004  -1.5572  -5.050600000000001 
C  -0.17150000000000176  -4.3094  0.49099999999999966 
H  0.14470000000000027  -3.5417999999999994  1.0489999999999995 
C  -1.6903000000000006  -4.2608999999999995  0.4476999999999993 
H  -1.9799000000000007  -3.4025999999999996  0.07199999999999918 
H  -2.0456000000000003  -4.3568  1.3553999999999995 
H  -2.0234000000000005  -4.9915  -0.11299999999999955 
C  0.2823999999999991  -5.604099999999999  1.1709999999999994 
H  -0.12239999999999895  -6.3712  0.714599999999999 
H  0.001100000000000989  -5.595  2.1102000000000007 
H  1.258499999999998  -5.6728  1.1237999999999992 
C  0.7164000000000001  -6.3812  -4.019300000000001 
C  1.4875000000000007  -6.1105  -5.3321000000000005 
C  0.9138999999999982  -5.285699999999999  -6.2957 
H  0.06050000000000111  -4.9037  -6.128500000000001 
C  1.5549999999999997  -5.0085999999999995  -7.4893 
H  1.1445000000000007  -4.4481  -8.136800000000001 
C  2.8095  -5.5625  -7.7286 
H  3.2612999999999985  -5.3835  -8.544 
C  3.3877999999999986  -6.363899999999999  -6.785900000000001 
H  4.247199999999999  -6.7353  -6.9468000000000005 
C  2.7323999999999984  -6.638999999999999  -5.5976 
H  3.1479  -7.201  -4.955300000000001 
C  1.3522999999999996  -7.5698  -3.2573000000000008 
C  2.4647000000000006  -7.354699999999999  -2.4428 
H  2.7791999999999994  -6.4662999999999995  -2.3155 
C  3.1220999999999997  -8.3978  -1.8148999999999997 
H  3.8802999999999983  -8.2176  -1.2712000000000003 
C  2.686  -9.695  -1.9716000000000005 
H  3.1377999999999986  -10.411999999999999  -1.5440000000000005 
C  1.5874999999999986  -9.9294  -2.7566000000000006 
H  1.2774999999999999  -10.8199  -2.872300000000001 
C  0.9209999999999994  -8.882299999999999  -3.3857999999999997 
H  0.15370000000000061  -9.0701  -3.9147 
C  -0.7459999999999987  -6.7189  -4.425600000000001 
C  -0.9517999999999986  -7.5828  -5.510900000000001 
H  -0.19960000000000022  -7.9422  -5.966000000000001 
C  -2.2195  -7.9228  -5.9335 
H  -2.332700000000001  -8.512  -6.6703 
C  -3.3270999999999997  -7.4078  -5.2865 
H  -4.203000000000001  -7.6327  -5.5792 
C  -3.144300000000001  -6.56  -4.2074 
H  -3.8995999999999995  -6.2111  -3.750300000000001 
C  -1.8640000000000008  -6.214599999999999  -3.785400000000001 
H  -1.7567000000000004  -5.6244  -3.0479000000000003 
