65
unq_CSD-CAFSUZ-02-a
N  0.08889999999999976  1.5320999999999998  1.2367000000000001 
N  -0.04499999999999993  1.1473999999999993  -1.6333 
N  -2.1245000000000003  -0.6926000000000005  -1.7411 
C  0.27339999999999964  2.8316999999999997  0.9012999999999998 
C  0.29879999999999995  3.267900000000001  -0.45830000000000004 
C  0.5145999999999997  4.636100000000001  -0.7454000000000001 
H  0.5316000000000001  4.908900000000001  -1.6344 
C  0.6992000000000003  5.569000000000001  0.22619999999999996 
H  0.8501000000000003  6.460800000000001  0.00869999999999993 
C  0.6576000000000004  5.162599999999999  1.5361999999999998 
H  0.7733999999999996  5.791499999999999  2.2111 
C  0.4477000000000002  3.8474000000000004  1.8736 
H  0.4196  3.614700000000001  2.7733999999999996 
C  0.07859999999999978  2.4282000000000004  -1.5911 
H  0.015699999999999825  2.8649000000000004  -2.41 
C  -0.3412999999999995  0.5470000000000006  -2.9359 
H  0.48519999999999985  0.39119999999999955  -3.4179000000000004 
H  -0.8856000000000002  1.1565999999999992  -3.4585999999999997 
C  -1.0759999999999996  -0.7585999999999995  -2.757 
H  -1.4738999999999995  -1.0149999999999997  -3.6043000000000003 
H  -0.4402999999999997  -1.4474  -2.5096 
C  -3.2011  0.21920000000000073  -2.1411 
H  -3.6141  -0.10720000000000063  -2.9563 
H  -2.8297  1.0960999999999999  -2.3243 
C  -4.2494  0.33339999999999925  -1.0571000000000002 
H  -3.8543  0.7459000000000007  -0.27300000000000013 
H  -4.9674  0.9082000000000008  -1.3667 
C  -4.8164  -1.0142999999999995  -0.6811 
H  -5.3357  -1.3689999999999998  -1.4191 
H  -5.4036  -0.9203000000000001  0.08479999999999999 
C  -3.6905  -1.9650999999999996  -0.3458000000000001 
H  -3.251  -1.6734  0.46829999999999994 
H  -4.051  -2.8524000000000003  -0.1927000000000001 
C  -2.6864  -2.019  -1.4652 
H  -1.971  -2.628  -1.2263000000000002 
H  -3.1162  -2.3589  -2.2664 
C  0.05830000000000002  1.1930999999999994  2.6331999999999995 
C  -1.1810999999999998  0.9558999999999997  3.2436999999999996 
C  -1.1878000000000002  0.5434999999999999  4.5805 
H  -2.0016  0.3844999999999992  5.0024999999999995 
C  -0.03230000000000022  0.3680000000000003  5.2778 
H  -0.06350000000000033  0.08639999999999937  6.1636999999999995 
C  1.1772  0.6044  4.6758 
H  1.9585  0.48910000000000053  5.166399999999999 
C  1.2605000000000004  1.0145999999999997  3.3449 
C  -2.4773  1.1381999999999994  2.4852999999999996 
H  -2.2914000000000003  0.9392999999999994  1.5437 
C  -2.9455  2.58  2.5538 
H  -2.2407000000000004  3.1605000000000008  2.2592999999999996 
H  -3.1824  2.7973  3.4578999999999995 
H  -3.7113  2.694699999999999  1.9860999999999998 
C  -3.5907999999999998  0.19570000000000043  2.9361999999999995 
H  -3.281  -0.7117000000000004  2.8891 
H  -4.3522  0.3039000000000005  2.3621 
H  -3.8390999999999997  0.4037000000000006  3.8392 
C  2.6125999999999996  1.2652  2.7283999999999997 
H  2.4624999999999995  1.6698000000000004  1.8478999999999999 
C  3.3744000000000005  -0.036300000000000665  2.5099 
H  2.8365  -0.6397999999999993  1.9915 
H  3.575500000000001  -0.43599999999999994  3.3592999999999993 
H  4.1916  0.14700000000000024  2.0407 
C  3.463  2.2345000000000006  3.5413999999999994 
H  2.9769999999999994  3.0508000000000006  3.6785999999999994 
H  4.2763  2.4227000000000007  3.0668999999999995 
H  3.673800000000001  1.8416999999999994  4.3919999999999995 
