54
unq_CSD-CAVBAD-02-a
N  0.7727999999999999  -1.6918  1.0773999999999995 
N  1.7723999999999998  0.32799999999999985  1.1483000000000003 
Si  -0.7844  -5.5521  1.5813000000000001 
Si  2.9311  1.5857999999999999  1.2945999999999995 
C  -0.27149999999999996  -3.7822  1.6625999999999999 
H  -0.8671  -3.2464  2.1542999999999997 
C  0.7775999999999998  -3.092  1.1655000000000002 
C  1.8157999999999999  -0.9519000000000002  1.4621 
C  -2.6423  -5.4843  1.6257999999999995 
H  -2.9992  -6.3847000000000005  1.5772999999999997 
H  -2.9648  -4.9673  0.8696999999999999 
H  -2.9312  -5.0641  2.4507999999999996 
C  -0.24539999999999998  -6.3989  0.012299999999999756 
H  -0.5333  -7.3249  0.028499999999999748 
H  0.7222  -6.3637  -0.05810000000000004 
H  -0.6418999999999999  -5.9505  -0.7511000000000001 
C  -0.2278  -6.5662  3.0483 
H  -0.517  -7.4857000000000005  2.9353000000000002 
H  -0.6165  -6.2021  3.8587000000000002 
H  0.7397  -6.5385  3.1129000000000002 
C  1.948  -3.7963  0.5661 
C  2.5745  -4.8354  1.2396999999999996 
H  2.247  -5.1141000000000005  2.0765 
C  3.678  -5.4656  0.6905999999999999 
H  4.0888  -6.175800000000001  1.1500999999999997 
C  4.1698  -5.064  -0.5087999999999999 
H  4.9262  -5.4904  -0.8700000000000001 
C  3.5639  -4.0296  -1.2003000000000001 
H  3.8983999999999996  -3.7606  -2.0371 
C  2.4652  -3.3958  -0.6571000000000002 
H  2.0631  -2.6846  -1.1210000000000002 
C  2.9158  -1.5777  2.2758 
C  2.6367  -2.0577  3.5378000000000003 
H  1.7721  -1.954  3.8924999999999996 
C  3.6136  -2.6916  4.2918 
H  3.4154999999999998  -3.0115  5.152100000000001 
C  4.8829  -2.8463000000000003  3.7647999999999997 
H  5.5497  -3.2768  4.2683 
C  5.17  -2.3778  2.5169 
H  6.0332  -2.4913  2.1630999999999996 
C  4.199  -1.7332  1.7638000000000003 
H  4.4079  -1.4036  0.9093 
C  3.9508  1.5671  2.8677999999999995 
H  4.4517  0.7378  2.9191999999999996 
H  3.3626  1.6364999999999998  3.6355999999999997 
H  4.5664  2.3164999999999996  2.8634 
C  4.1149  1.5593000000000004  -0.1520999999999999 
H  3.6111  1.5679999999999996  -0.9816000000000003 
H  4.657  0.7561999999999998  -0.11100000000000021 
H  4.6892  2.3396999999999997  -0.11390000000000011 
C  2.0117  3.1967  1.2426 
H  1.4733  3.2367999999999997  0.4365999999999999 
H  2.6454999999999997  3.9315999999999995  1.2441 
H  1.4356  3.2664  2.0207 
