27
unq_CSD-MELMAS-02-a
N  -1.4254  -0.9853999999999999  1.4324999999999992 
N  -1.4716  -1.4456  -0.7987000000000002 
Si  -2.0273000000000003  -1.9691  -2.3103 
C  -1.9747000000000001  -1.7544  0.46110000000000007 
C  -2.8375000000000004  -2.8278  0.7625999999999991 
H  -3.1638  -3.4101  0.08519999999999861 
C  -3.18  -2.9924999999999997  2.065199999999999 
H  -3.7924  -3.6821  2.296000000000001 
C  -2.6746000000000003  -2.1984  3.0571 
H  -2.9438000000000004  -2.3308  3.957700000000001 
C  -1.7736  -1.2088999999999999  2.7406999999999986 
C  -1.1319  -0.3618999999999999  3.795899999999998 
H  -0.5195  0.27769999999999984  3.375300000000001 
H  -0.6309  -0.9339  4.4155 
H  -1.8246  0.12630000000000008  4.289 
C  -3.8706  -2.4484  -2.2706999999999997 
H  -4.4045000000000005  -1.6705999999999999  -2.0046 
H  -4.0067  -3.1733000000000002  -1.625 
H  -4.15  -2.7469  -3.1621000000000006 
C  -1.8425  -0.6382999999999999  -3.6180000000000003 
H  -2.3403  0.1600999999999999  -3.342600000000001 
H  -2.1956  -0.9662  -4.4703 
H  -0.8946  -0.41189999999999993  -3.722200000000001 
C  -1.0799  -3.5027  -2.8773 
H  -1.1516  -4.2026  -2.1944 
H  -0.13679999999999998  -3.2733  -3.0113000000000003 
H  -1.4599  -3.8291  -3.7185000000000006 
