44
unq_CSD-MIFSOK-02-a
N  1.3753000000000002  0.4677000000000002  -1.2767 
N  -0.7018999999999997  1.8081999999999998  0.010599999999999943 
N  1.4287999999999998  1.4975999999999998  -2.0523 
C  0.5529000000000002  2.5218000000000003  -1.9466999999999999 
C  5.3242  -3.5766  -2.3059000000000003 
H  5.5539  -3.5878  -3.2380999999999998 
H  4.9746  -4.4334  -2.0526999999999997 
H  6.107600000000001  -3.3832  -1.7852999999999999 
C  -0.4493999999999998  2.7205  -0.9406 
C  -1.2223  3.9381  -1.0183 
H  -1.8882999999999999  4.087300000000001  -0.38459999999999994 
C  -1.0150000000000001  4.8719  -1.9782 
H  -1.5522  5.631  -1.9938 
C  0.0043999999999999595  4.724  -2.9646999999999997 
C  0.7739000000000003  3.5536  -2.9675000000000002 
C  0.24560000000000004  5.766400000000001  -3.904 
H  -0.26880000000000015  6.5411  -3.8952999999999998 
C  1.2523  5.604699999999999  -4.825 
H  1.4421  6.2844  -5.432 
C  1.9968000000000004  4.414899999999999  -4.8513 
H  2.6612999999999998  4.308  -5.4932 
C  1.766  3.4124000000000003  -3.9565 
H  2.2683  2.6304000000000003  -3.9996 
C  2.3788  -0.5157  -1.5745 
C  2.7058  -1.4334  -0.5781999999999999 
H  2.2916  -1.3857  0.2522 
C  3.6469000000000005  -2.4147  -0.8284 
H  3.859  -3.0224  -0.15799999999999992 
C  4.2805  -2.5119  -2.0575 
C  3.9375  -1.5889  -3.0341 
H  4.3524  -1.6361999999999999  -3.8659 
C  2.9985  -0.6012  -2.8106 
H  2.7824999999999998  0.0018000000000000238  -3.4851 
C  -1.524  2.1369000000000002  1.1219000000000001 
C  -2.561  1.2799999999999998  1.4759000000000002 
H  -2.7359  0.5274999999999999  0.9594 
C  -3.3303  1.5417  2.5901 
H  -4.0323  0.9739  2.8133 
C  -3.0632  2.6391000000000004  3.3718000000000004 
H  -3.5892  2.8139  4.1188 
C  -2.0232  3.4760000000000004  3.0547000000000004 
H  -1.8408  4.210000000000001  3.5952 
C  -1.2468  3.2340000000000004  1.9350999999999998 
H  -0.5400999999999998  3.8021  1.7254 
