57
unq_CSD-MUPVEZ-02-a
N  -1.4949999999999974  0.2281999999999993  -1.2910000000000004 
N  -1.6546999999999983  -1.1061000000000005  0.9609000000000005 
N  -4.870100000000001  0.6496999999999993  -5.646599999999999 
Si  -2.526699999999998  -0.9525000000000006  -0.5999999999999996 
C  -4.904799999999998  -0.3871000000000002  -4.636299999999999 
H  -5.667999999999999  -0.9778000000000002  -4.8084 
H  -5.034499999999998  0.024899999999998812  -3.7574999999999994 
C  -3.6415000000000006  -1.2071000000000005  -4.6141 
C  -3.6176999999999992  -2.4810000000000008  -5.164499999999999 
H  -4.412599999999998  -2.8492000000000006  -5.502999999999999 
C  -2.4533999999999985  -3.221400000000001  -5.2258 
H  -2.4549999999999983  -4.0764000000000005  -5.6171999999999995 
C  -1.2886999999999986  -2.692800000000001  -4.7094 
H  -0.48969999999999914  -3.1845000000000008  -4.7551 
C  -1.2955000000000005  -1.4403000000000006  -4.122599999999999 
H  -0.49820000000000064  -1.0954000000000015  -3.7650999999999994 
C  -2.4589  -0.6805000000000003  -4.051799999999999 
C  -2.4285999999999994  0.6894999999999989  -3.4928 
H  -2.8127999999999993  1.3599999999999994  -4.0286 
C  -1.9197999999999986  1.0976  -2.313599999999999 
C  -1.7924000000000007  2.605599999999999  -2.0151000000000003 
C  -0.3078000000000003  2.9514999999999993  -1.8841 
H  0.13940000000000197  2.7775999999999996  -2.7264 
H  0.09149999999999991  2.407399999999999  -1.1879999999999988 
H  -0.2123999999999988  3.8900999999999986  -1.6555999999999997 
C  -2.5315999999999974  2.9514999999999993  -0.7062999999999988 
H  -2.380399999999998  3.8832999999999984  -0.4858999999999991 
H  -2.196300000000001  2.3908999999999985  0.010600000000000165 
H  -3.4833999999999996  2.796999999999999  -0.8209999999999997 
C  -2.3705  3.4936999999999987  -3.136099999999999 
H  -1.9036000000000008  3.309099999999999  -3.9677 
H  -2.253899999999998  4.4284  -2.9015000000000004 
H  -3.3160999999999987  3.3032999999999983  -3.2456999999999994 
C  -4.9131  0.08809999999999896  -6.9712 
H  -4.172999999999998  -0.5280000000000005  -7.0854 
H  -4.847200000000001  0.7992999999999988  -7.627699999999999 
H  -5.7499  -0.3871000000000002  -7.0946 
C  -5.973099999999999  1.5843999999999987  -5.432899999999999 
H  -6.8139  1.0995999999999988  -5.4436 
H  -5.9739  2.25  -6.1381 
H  -5.864799999999999  2.022599999999999  -4.573899999999999 
C  -4.271100000000001  -0.37349999999999994  -0.363999999999999 
H  -4.280200000000001  0.3971  0.2254000000000005 
H  -4.7989  -1.0867000000000004  0.028900000000000148 
H  -4.6484999999999985  -0.12670000000000137  -1.2230999999999987 
C  -2.6035000000000004  -2.673400000000001  -1.3045999999999989 
H  -3.067499999999999  -2.6530000000000005  -2.155199999999999 
H  -3.0794999999999995  -3.253400000000001  -0.6899999999999995 
H  -1.7025000000000006  -3.0096000000000007  -1.4362999999999992 
C  -1.440999999999999  -2.4479000000000006  1.5397999999999996 
H  -0.8432999999999993  -2.379900000000001  2.299800000000001 
H  -1.046199999999999  -3.029000000000001  0.8696999999999999 
H  -2.2929999999999993  -2.815200000000001  1.8277 
C  -2.1110000000000007  -0.16750000000000043  2.0191 
H  -2.8939999999999984  -0.5318000000000005  2.4581999999999997 
H  -2.334199999999999  0.6875999999999998  1.6189999999999998 
H  -1.4014999999999986  -0.04510000000000147  2.6699 
