63
unq_CSD-TIGFOE-02-a
N  -0.8635999999999999  -0.1484000000000001  -2.2546000000000017 
N  -2.364799999999999  -0.13549999999999995  -0.5862000000000016 
C  -2.1522999999999985  -0.2025999999999999  -1.8984000000000023 
C  -3.2464999999999993  -0.3226  -2.9130000000000003 
C  -3.1926999999999985  0.40249999999999986  -4.0966000000000005 
C  -4.202  0.34830000000000005  -5.030000000000001 
C  -5.325899999999999  -0.42969999999999997  -4.818100000000001 
C  -5.371199999999999  -1.1741000000000001  -3.6434000000000015 
C  -4.362799999999999  -1.1276000000000002  -2.7078000000000007 
C  -6.456899999999999  -0.4426000000000001  -5.828100000000001 
C  -0.3808999999999987  -0.4658000000000002  -3.551000000000002 
C  0.3330000000000002  0.5341  -4.247700000000002 
C  0.9191000000000003  0.21930000000000005  -5.4719000000000015 
C  0.8155999999999999  -1.0154  -5.997200000000001 
C  0.11020000000000074  -2.0217  -5.336600000000001 
C  -0.501199999999999  -1.7353  -4.085300000000002 
C  -1.219199999999999  -2.841  -3.4045000000000005 
C  -2.2661999999999995  -3.4887  -4.3176000000000005 
C  0.40140000000000065  1.9133  -3.708800000000002 
C  0.9577000000000009  2.9145  -4.506900000000002 
C  -3.6562  0.017999999999999794  -0.02260000000000062 
C  -4.4365  1.1560000000000001  -0.24350000000000094 
C  -5.656599999999999  1.2410999999999999  0.43740000000000023 
C  -6.0977  0.2618999999999998  1.2896 
C  -5.349799999999999  -0.8553999999999999  1.4766999999999975 
C  -4.1099  -0.9986000000000002  0.8363999999999976 
C  -3.2783999999999995  -2.2294  1.0280999999999985 
C  -3.847999999999999  -3.2977  1.9681999999999995 
C  -4.018799999999999  2.3158  -1.1138000000000012 
C  -5.0482  2.6590000000000003  -2.1936999999999998 
H  -2.4563999999999986  0.9404999999999997  -4.265700000000001 
H  -4.127699999999999  0.8412000000000002  -5.8146 
H  -6.1091999999999995  -1.7211  -3.4834000000000014 
H  -4.427899999999999  -1.6398000000000001  -1.9344999999999999 
H  -6.507499999999999  -1.3083  -6.2407 
H  -6.289499999999999  0.22189999999999976  -6.500000000000002 
H  -7.285799999999999  -0.2503000000000002  -5.3862000000000005 
H  1.3900000000000006  0.8747000000000003  -5.936400000000001 
H  1.2271999999999998  -1.2025000000000001  -6.8111000000000015 
H  0.03509999999999991  -2.8694  -5.7109000000000005 
H  -1.6582999999999988  -2.4965  -2.610800000000001 
H  -0.5821999999999985  -3.5145  -3.1226000000000003 
H  -2.8862999999999985  -2.8203  -4.617400000000002 
H  -2.7339  -4.1699  -3.8351000000000006 
H  -1.829699999999999  -3.8796  -5.077400000000001 
H  -0.5025999999999993  2.1854999999999998  -3.4811000000000014 
H  0.9024999999999999  1.8809999999999998  -2.879100000000001 
H  1.4175000000000004  2.5132  -5.248700000000001 
H  1.58  3.4278999999999997  -3.9861000000000004 
H  0.2624000000000013  3.4886000000000004  -4.833900000000002 
H  -6.189699999999999  1.9919999999999995  0.30659999999999954 
H  -6.9049  0.3637999999999999  1.7404999999999973 
H  -5.663899999999999  -1.5328000000000002  2.031399999999998 
H  -2.407499999999999  -1.9585000000000001  1.3684999999999974 
H  -3.1326  -2.6371  0.1600999999999999 
H  -3.9754999999999985  -2.9197  2.840799999999998 
H  -3.2325  -4.0331  2.0268999999999977 
H  -4.687899999999999  -3.6086  1.6254999999999988 
H  -3.175699999999999  2.1016999999999997  -1.5398999999999994 
H  -3.8785999999999987  3.0951  -0.5524000000000022 
H  -5.232099999999999  1.8771999999999998  -2.719100000000001 
H  -4.699699999999999  3.3505  -2.7596000000000007 
H  -5.8568999999999996  2.9635000000000002  -1.7789000000000001 
