25
unq_CSD-TIHYOA-02-a
N  -0.7446000000000002  1.3461999999999996  -1.2901999999999996 
N  -1.3381000000000007  0.9878999999999998  1.2228000000000003 
C  -1.6143  2.2209000000000003  -0.7606999999999995 
C  -1.3222000000000005  2.7756999999999996  -2.76 
C  -2.0005000000000006  2.0271999999999997  0.6338000000000008 
C  -2.9510000000000005  2.7653999999999996  1.3050000000000006 
H  -3.3947000000000003  3.4894999999999996  0.8793000000000006 
C  -3.2454000000000005  2.425  2.6184000000000003 
H  -3.8918000000000004  2.9234  3.1059 
C  -2.6011  1.3696000000000002  3.2131000000000007 
H  -2.8055000000000003  1.1181  4.1065 
C  -1.6416000000000004  0.6715  2.4827000000000004 
H  -1.1878000000000002  -0.05390000000000006  2.8951000000000002 
C  -1.4590000000000005  3.4833999999999996  -4.034999999999999 
C  -2.3002000000000002  4.578  -4.1495999999999995 
H  -2.7796000000000003  4.8964  -3.3922999999999996 
C  -2.4382000000000006  5.202699999999999  -5.372999999999999 
H  -3.0138000000000003  5.9537  -5.4665 
C  -1.7309  4.7244  -6.4589 
H  -1.8050000000000006  5.1345  -7.311999999999999 
C  -0.9127000000000001  3.6315  -6.263399999999999 
H  -0.4303000000000008  3.2975000000000003  -7.010299999999999 
N  -0.5402000000000005  1.6921  -2.59 
N  -2.0127000000000006  3.1433999999999997  -1.6403999999999996 
N  -0.7546000000000008  3.0076  -5.083699999999999 
