22
unq_CSD-TOFYAR-02-a
N  -0.4085000000000001  0.4203999999999999  -1.9498000000000002 
N  1.203  -1.3091000000000008  -0.9060000000000006 
N  2.064  -2.272900000000001  -0.5214000000000008 
N  1.9959999999999998  -2.1873000000000005  -2.7889000000000004 
C  -1.2782  1.3323999999999998  -2.3864000000000005 
H  -1.7366000000000001  1.854499999999999  -1.7675000000000005 
C  -1.5134  1.5217999999999998  -3.7339 
H  -2.1414  2.145599999999999  -4.0191 
C  -0.8142  0.7827999999999999  -4.639900000000001 
H  -0.9635  0.9068999999999994  -5.549300000000001 
C  0.10749999999999993  -0.14030000000000076  -4.222300000000001 
H  0.5980000000000001  -0.6347000000000005  -4.839300000000001 
C  0.2913999999999999  -0.3202000000000007  -2.8718000000000004 
C  1.1878  -1.2806000000000006  -2.2455000000000003 
C  2.5298999999999996  -2.7747  -1.6761000000000004 
C  3.4802  -3.9100000000000006  -1.7131000000000003 
H  3.8542000000000005  -4.038600000000001  -0.8271000000000006 
H  4.21  -3.6924000000000006  -2.3140000000000005 
C  2.8345000000000002  -5.1982  -2.1676 
H  2.5046999999999997  -5.0920000000000005  -3.0625000000000004 
H  2.1059  -5.4147  -1.5811000000000002 
H  3.4831000000000003  -5.905600000000001  -2.1468000000000003 
