34
unq_CSD-TORVUR-02-a
N  0.25159999999999993  0.6159999999999997  2.1385999999999985 
N  0.3494999999999999  -1.7702999999999998  1.2675 
C  0.007699999999999929  -0.3287  3.089699999999999 
C  -0.41190000000000004  -0.0031999999999996476  4.389899999999999 
C  -0.6526000000000001  -0.7732999999999999  5.5318999999999985 
C  -0.4726  -2.1117  5.7265 
C  -0.0131  -3.0198  4.771800000000001 
C  0.2552  -2.8468  3.447899999999999 
C  0.19299999999999995  -1.7084000000000001  2.5931999999999977 
C  0.5018  1.9798  2.6332000000000004 
C  -0.7191000000000001  2.8832000000000004  2.6441 
C  1.6650999999999998  2.6054000000000004  1.8548999999999989 
C  0.7075  -3.0341  0.5454999999999988 
C  -0.42410000000000003  -4.0836  0.5274000000000001 
C  2.0866  -3.5850999999999997  0.8964999999999979 
H  -0.5638000000000001  0.9351000000000003  4.5207999999999995 
H  -0.9911000000000001  -0.2873999999999999  6.286599999999998 
H  -0.6805000000000001  -2.461  6.597599999999998 
H  0.14179999999999993  -3.9074  5.1028 
H  0.5415999999999999  -3.6486  3.004199999999999 
H  0.7942  1.8973000000000004  3.5424999999999986 
H  -1.4221  2.4593  3.140600000000001 
H  -0.49600000000000005  3.7215  3.0569000000000006 
H  -1.0132  3.0388  1.743999999999998 
H  2.416  2.0068  1.8712999999999997 
H  1.3946  2.7578000000000005  0.9474 
H  1.9127999999999998  3.4389000000000003  2.260399999999999 
H  0.7954999999999999  -2.7626  -0.37100000000000044 
H  -1.252  -3.6549  0.2981999999999996 
H  -0.21860000000000007  -4.7552  -0.1291000000000011 
H  -0.5042000000000001  -4.4932  1.3911999999999995 
H  2.7252  -2.8674  0.8928999999999991 
H  2.0584  -3.9836  1.7693999999999992 
H  2.344  -4.2456  0.24910000000000032 
