46
unq_CSD-TOZYIS-02-a
N  -0.3216999999999999  0.40060000000000007  2.3171 
N  -1.0236999999999998  1.9084  0.7927999999999997 
N  -1.5267  2.3480999999999996  3.0993999999999993 
C  -0.9489000000000001  1.5477  2.0557 
C  -1.7700999999999993  3.0778999999999996  0.3356999999999992 
H  -2.356  3.3925  1.0672999999999995 
C  -0.8324999999999996  4.1865  -0.04809999999999981 
H  -0.27829999999999977  4.417599999999999  0.7144999999999992 
H  -1.3434999999999988  4.9634  -0.3214000000000006 
H  -0.27009999999999934  3.8944  -0.7810000000000006 
C  -2.628499999999999  2.6692  -0.8455999999999992 
H  -2.0587  2.4198000000000004  -1.5907999999999998 
H  -3.194799999999999  3.4117999999999995  -1.1064000000000007 
H  -3.1834999999999987  1.9126  -0.5972000000000008 
C  -0.051899999999999835  0.005799999999999916  3.710000000000001 
H  -0.26129999999999853  0.7793999999999999  4.2918 
C  1.4100000000000001  -0.3174  3.876900000000001 
H  1.6466000000000012  -1.0546  3.293100000000001 
H  1.584200000000001  -0.5656  4.7986 
H  1.9412000000000003  0.4605999999999999  3.6458999999999993 
C  -0.9436  -1.1563  4.1348 
H  -1.8707999999999991  -0.8781000000000001  4.1104 
H  -0.7112999999999996  -1.4281000000000001  5.037000000000001 
H  -0.8132000000000001  -1.9021000000000001  3.5290999999999997 
C  -2.707799999999999  1.8943999999999999  3.7288999999999994 
C  -3.6814999999999998  1.2364  2.9975000000000005 
H  -3.5561999999999987  1.1026  2.0759000000000007 
C  -4.8285  0.7751999999999999  3.598700000000001 
H  -5.4801  0.3353999999999999  3.0845000000000002 
C  -5.034699999999999  0.9496  4.9426000000000005 
H  -5.8210999999999995  0.6371  5.350099999999999 
C  -4.055999999999999  1.598  5.6929 
H  -4.18  1.719  6.616999999999999 
C  -2.908999999999999  2.0624000000000002  5.0915 
H  -2.2561  2.498  5.608400000000001 
C  -0.8719000000000001  3.5347999999999997  3.4921000000000006 
C  -1.5960999999999999  4.642399999999999  3.9215999999999998 
H  -2.532499999999999  4.6113  3.944000000000001 
C  -0.9306999999999999  5.788399999999999  4.3117 
H  -1.4210999999999991  6.5225  4.632099999999999 
C  0.430200000000001  5.8686  4.2346 
H  0.8704999999999998  6.658399999999999  4.493 
C  1.149700000000001  4.7943  3.785 
H  2.0869999999999997  4.8532  3.7303999999999995 
C  0.5126000000000008  3.6205  3.4078999999999997 
H  1.0150000000000006  2.8884999999999996  3.0993999999999993 
