29
unq_CSD-PEQDAR-02-a
N  0.6566000000000001  0.6097999999999999  -1.8778999999999995 
N  1.1058000000000003  1.9806999999999997  -0.17819999999999947 
C  1.3314000000000004  1.7060000000000004  -1.4181999999999997 
C  2.4242999999999997  2.5275999999999996  -2.0622 
H  2.127  2.9219  -2.9200999999999997 
H  3.2443  1.9931  -2.2104999999999997 
C  2.6353  3.6066000000000003  -0.9839999999999991 
H  2.138600000000001  4.4332  -1.208499999999999 
H  3.595200000000001  3.8244  -0.8843999999999994 
C  2.0794000000000006  2.9623999999999997  0.30180000000000007 
H  2.802500000000001  2.5218999999999996  0.8166000000000011 
H  1.6449000000000007  3.6403999999999996  0.8758999999999997 
C  0.6160000000000005  0.23850000000000016  -3.2352999999999996 
C  0.6635  -1.1333000000000002  -3.5492999999999997 
H  0.7418000000000005  -1.7675999999999998  -2.845999999999999 
C  0.5972000000000008  -1.5729000000000002  -4.845699999999999 
C  0.4665000000000008  -0.6366999999999998  -5.8561 
H  0.4380000000000006  -0.9344999999999999  -6.7585 
C  0.3741000000000003  0.7260999999999997  -5.593399999999999 
C  0.46450000000000014  1.1376999999999997  -4.280099999999999 
H  0.42110000000000003  2.0664999999999996  -4.0851999999999995 
C  0.6653000000000002  -3.0454  -5.167599999999999 
H  0.5948000000000002  -3.1715999999999998  -6.1377999999999995 
H  -0.0743999999999998  -3.5106  -4.722799999999999 
H  1.5171999999999999  -3.4092000000000002  -4.8499 
C  0.16520000000000046  1.7118000000000002  -6.7119 
H  0.11660000000000004  2.6184000000000003  -6.343299999999999 
H  -0.6717999999999993  1.5038999999999998  -7.177899999999999 
H  0.9132000000000007  1.6548999999999996  -7.3431 
