39
unq_CSD-QAJDEM-02-a
N  -0.1508999999999998  1.9865  0.5505 
N  1.496  1.2675999999999994  -0.7128999999999999 
N  1.2593  3.6667  -0.4314 
C  0.8862000000000001  2.3512  -0.22089999999999987 
C  -0.9419  2.9465  1.3401 
H  -0.5271999999999999  3.8505  1.241 
C  -2.3676  3.0144999999999995  0.8064 
H  -2.3489  3.2487  -0.14469999999999983 
H  -2.8692  3.6949  1.3016999999999999 
H  -2.8011999999999997  2.1425999999999994  0.919 
C  -0.9368999999999998  2.5794  2.8201000000000005 
H  -1.3006  1.6766999999999999  2.9341000000000004 
H  -1.4892999999999998  3.2182999999999997  3.3168 
H  -0.017899999999999805  2.6077  3.1611 
C  2.4476  1.3161  -1.8497999999999999 
H  3.1157000000000004  2.0311  -1.6424999999999998 
C  1.7694  1.7037999999999998  -3.1402 
H  1.1059  1.0227999999999997  -3.3777999999999997 
H  2.4383  1.7711999999999999  -3.8529 
H  1.3228  2.5685999999999996  -3.0281 
C  3.2012  0.023299999999999876  -1.9434 
H  3.6180000000000003  -0.17540000000000022  -1.0789999999999997 
H  3.8947000000000003  0.09819999999999984  -2.6309 
H  2.5827  -0.6987000000000001  -2.1809 
C  0.3488  4.6251  -1.0598 
H  -0.5814999999999999  4.297699999999999  -0.976 
H  0.5627  4.6982  -2.0239 
C  0.46230000000000016  5.9969  -0.41080000000000005 
H  0.11990000000000012  5.9536  0.5165000000000002 
H  -0.09089999999999998  6.6472999999999995  -0.9127000000000001 
C  1.9136000000000002  6.4658  -0.39739999999999975 
H  2.2114000000000003  6.644  -1.3244 
H  1.9833000000000003  7.309899999999999  0.11529999999999996 
C  2.8167  5.413699999999999  0.23170000000000002 
H  2.5865  5.311299999999999  1.1895000000000002 
H  3.7590000000000003  5.710199999999999  0.1734 
C  2.6623  4.069599999999999  -0.4735999999999998 
H  2.9621000000000004  4.1465  -1.4142 
H  3.2222  3.3878999999999997  -0.024599999999999955 
