17
unq_CSD-QECDUZ-02-a
N  -1.0110999999999999  0.7856999999999998  -1.4307 
N  0.7313000000000001  1.8297000000000003  0.1452 
N  -1.5231000000000003  2.6667  -2.5706 
C  -0.8003999999999998  2.1115999999999997  -1.5891000000000002 
C  -2.2481999999999998  1.6138  -3.0557000000000003 
H  -2.8573  1.6689000000000003  -3.7560000000000002 
C  -1.9516  0.4596  -2.3625000000000003 
H  -2.3225  -0.3809  -2.5050000000000003 
C  0.1596000000000002  2.7277  -0.6984000000000004 
C  0.47419999999999973  4.076499999999999  -0.6350000000000002 
H  0.04809999999999981  4.6838999999999995  -1.1964000000000001 
C  1.4156000000000004  4.5037  0.26049999999999995 
H  1.6467999999999998  5.4031  0.30600000000000005 
C  2.0187  3.5859  1.0960999999999999 
H  2.6664000000000003  3.8587000000000002  1.7054999999999998 
C  1.6512000000000002  2.2651999999999997  1.0159000000000002 
H  2.054900000000001  1.6519999999999997  1.5857999999999999 
