24
unq_CSD-QEJFOC-02-a
N  -1.9609000000000005  0.6008999999999993  -1.1852 
N  -2.181700000000001  -0.9641000000000011  0.45640000000000036 
C  -2.735800000000001  -0.14610000000000056  -0.4018999999999995 
H  -3.6817  -0.08689999999999998  -0.4651999999999994 
C  -2.6142000000000003  1.5094999999999992  -2.1156000000000006 
H  -3.5995  1.3415999999999997  -2.0846999999999998 
C  -2.3590999999999998  2.9436999999999998  -1.7255000000000003 
H  -2.6831999999999994  3.097199999999999  -0.8126999999999995 
H  -2.831200000000001  3.5404999999999998  -2.3438 
H  -1.3971  3.1270999999999987  -1.7652 
C  -2.122300000000001  1.2456999999999994  -3.5408 
H  -1.171100000000001  1.472199999999999  -3.6056 
H  -2.6325000000000003  1.7973999999999997  -4.1694 
H  -2.2492  0.2994999999999983  -3.7602 
C  -3.0968999999999998  -1.690100000000001  1.3589000000000002 
H  -3.8308  -1.0642000000000005  1.6224000000000007 
C  -3.7280000000000006  -2.9015000000000004  0.6964000000000006 
H  -4.282  -2.609800000000001  -0.05889999999999951 
H  -4.287  -3.3762000000000008  1.3470999999999993 
H  -3.0245999999999995  -3.5009000000000006  0.37100000000000044 
C  -2.3381000000000007  -2.0875000000000012  2.625 
H  -1.6856000000000009  -2.786200000000001  2.4101 
H  -2.9700000000000006  -2.426000000000001  3.2934 
H  -1.8710000000000004  -1.3053000000000008  2.9856999999999996 
