60
unq_CSD-QEJNOJ-02-a
N  0.7653999999999999  -1.1844999999999999  -1.3220000000000005 
N  -1.7808  -0.6230999999999991  -0.21740000000000048 
C  0.09160000000000001  -2.1326  -1.8981000000000003 
H  0.5689  -2.6761  -2.4828 
C  -1.2918  -2.440199999999999  -1.7418000000000005 
C  -2.2002  -1.6747999999999994  -0.9407000000000005 
C  -3.5627  -2.0997000000000003  -0.9636000000000005 
H  -4.1934  -1.6250999999999998  -0.4703000000000004 
C  -3.969  -3.1851000000000003  -1.6911000000000005 
H  -4.8633999999999995  -3.4377999999999993  -1.6648000000000005 
C  -3.0839  -3.9162999999999997  -2.4642000000000004 
H  -3.3783  -4.6452  -2.9602000000000004 
C  -1.7749000000000001  -3.544699999999999  -2.4817000000000005 
H  -1.1774  -4.0343  -2.998 
C  2.1482  -1.0957999999999988  -1.7023000000000006 
C  3.0826  -1.9140999999999995  -1.0694000000000004 
C  4.4152000000000005  -1.7615999999999996  -1.4234000000000004 
H  5.0575  -2.2988  -1.0162000000000004 
C  4.8044  -0.8470999999999993  -2.3495000000000004 
H  5.706600000000001  -0.7518999999999991  -2.5530000000000004 
C  3.8851  -0.07099999999999973  -2.9854000000000003 
H  4.1699  0.5452000000000012  -3.6214000000000004 
C  2.5097  -0.18039999999999878  -2.6972000000000005 
C  1.4842  0.5776000000000003  -3.4679 
H  1.1536  0.03139999999999965  -4.185300000000001 
H  1.8794  1.3751999999999995  -3.8286000000000002 
H  0.7578  0.8147000000000002  -2.8863000000000003 
C  2.6779  -2.9185999999999996  -0.03250000000000064 
H  2.0789  -2.5090000000000003  0.5961999999999996 
H  3.4588  -3.2348  0.43049999999999944 
H  2.2378  -3.6587999999999994  -0.45770000000000044 
C  -2.7503  0.13760000000000083  0.5118999999999998 
C  -3.072  -0.2272999999999996  1.8294999999999995 
C  -3.9709  0.5630000000000006  2.5313999999999997 
H  -4.1921  0.3331999999999997  3.4049999999999994 
C  -4.5367999999999995  1.6704000000000008  1.9672999999999998 
H  -5.146299999999999  2.1783  2.4518999999999993 
C  -4.209099999999999  2.0305  0.6934999999999993 
H  -4.587899999999999  2.7964  0.3259999999999996 
C  -3.3227  1.2806999999999995  -0.06430000000000025 
C  -2.4545  -1.4488000000000003  2.4886999999999997 
H  -1.8496000000000001  -1.863999999999999  1.8393999999999995 
C  -3.4896000000000003  -2.4802999999999997  2.8807 
H  -4.0938  -2.0993999999999993  3.5221 
H  -3.0505  -3.241999999999999  3.2680999999999996 
H  -3.978  -2.7550999999999988  2.1023999999999994 
C  -1.6247  -1.0375999999999994  3.6986999999999997 
H  -0.9441999999999999  -0.4177999999999997  3.4247999999999994 
H  -1.2128  -1.8155000000000001  4.084199999999999 
H  -2.193  -0.6207999999999991  4.3508 
C  -2.9738  1.7184000000000008  -1.4793000000000003 
H  -2.3864  1.033900000000001  -1.8612000000000002 
C  -4.174799999999999  1.8369999999999997  -2.3765000000000005 
H  -4.648499999999999  1.0015999999999998  -2.3891000000000004 
H  -3.8874  2.054400000000001  -3.2665000000000006 
H  -4.7523  2.5287000000000006  -2.0486000000000004 
C  -2.2102  3.0191  -1.4739000000000004 
H  -2.7762000000000002  3.7216000000000005  -1.1442000000000005 
H  -1.9293  3.2293000000000003  -2.3675000000000006 
H  -1.4399  2.9365000000000006  -0.9063000000000003 
