42
unq_CSD-QILSIQ-02-a
N  0.3669000000000002  -1.9223000000000003  0.45379999999999754 
N  -0.40939999999999976  0.10109999999999975  1.8363999999999976 
C  0.6845000000000008  -2.8842000000000003  -0.4272000000000027 
H  0.6806000000000001  -2.6751  -1.3546000000000014 
C  1.0181000000000004  -4.1591000000000005  -0.03730000000000189 
H  1.2156000000000002  -4.833  -0.6774000000000022 
C  1.0538000000000007  -4.4261  1.3244000000000007 
H  1.2761000000000005  -5.2979  1.6275999999999975 
C  0.7689000000000004  -3.4298  2.2421000000000006 
H  0.8255000000000008  -3.6094  3.172599999999999 
C  0.3957000000000006  -2.1517  1.791599999999999 
C  -0.013299999999999201  -1.0021000000000004  2.6046999999999976 
C  -0.21279999999999966  -0.7374  3.9655999999999985 
C  -0.7726999999999995  0.5639000000000003  3.9999000000000002 
H  -1.0317999999999996  1.0319000000000003  4.785899999999998 
C  -0.8828999999999998  1.0453000000000001  2.7063999999999986 
C  0.0741000000000005  -1.5720999999999998  5.209999999999997 
C  -0.8321999999999994  -2.8159  5.2653 
H  -1.7602999999999995  -2.5373  5.4072 
H  -0.5482999999999993  -3.3944  6.003599999999999 
H  -0.7636999999999992  -3.3066  4.4193 
C  -0.22469999999999946  -0.758  6.4705999999999975 
H  -1.1706999999999996  -0.5021000000000004  6.477899999999998 
H  0.33110000000000017  0.04919999999999991  6.477899999999998 
H  -0.02719999999999967  -1.2986000000000004  7.262799999999999 
C  1.5690000000000008  -1.9493  5.281700000000001 
H  2.107  -1.1349999999999998  5.373999999999999 
H  1.8271000000000006  -2.4192  4.460699999999999 
H  1.7218  -2.5327  6.0533 
C  -1.4942999999999995  2.3498  2.227599999999999 
C  -2.3975999999999997  2.1026  1.0062999999999995 
H  -3.1132999999999997  1.4787  1.2506999999999984 
H  -1.8655999999999997  1.7208999999999994  0.279399999999999 
H  -2.7897  2.9520999999999997  0.7142999999999979 
C  -0.4341999999999997  3.3549000000000007  1.8201999999999998 
H  0.11770000000000014  3.5805000000000007  2.596799999999998 
H  -0.8669999999999995  4.166599999999999  1.480599999999999 
H  0.13060000000000027  2.9672  1.1180999999999983 
C  -2.3390999999999997  2.9444999999999997  3.3278999999999996 
H  -1.7692999999999994  3.1625999999999994  4.0962 
H  -3.0219999999999994  2.2979000000000003  3.6012999999999984 
H  -2.7727999999999997  3.7607  3.002700000000001 
