47
unq_CSD-QIPSAM-02-a
N  -0.7315000000000005  1.6117999999999997  1.2162999999999986 
N  -1.8577  -0.07810000000000006  -0.5200000000000014 
N  -0.8227000000000002  -2.0170000000000003  -2.2363 
C  -2.0025  1.7085  1.0564999999999998 
H  -2.5003  2.3660000000000005  1.528599999999999 
C  -2.657  0.8064  0.15189999999999948 
C  -3.9958  0.6155999999999997  -0.22000000000000064 
H  -4.7499  1.1013000000000002  0.0912999999999986 
C  -3.9958  -0.4390999999999998  -1.1470000000000002 
H  -4.7533  -0.8150000000000004  -1.5806000000000004 
C  -2.6513  -0.8337000000000003  -1.3108000000000004 
C  -2.0814  -1.8045999999999998  -2.227500000000001 
H  -2.6467  -2.2826000000000004  -2.8217 
C  -0.3158000000000003  -2.9413  -3.266700000000001 
H  -1.0848000000000004  -3.3016  -3.794200000000001 
C  0.6132999999999997  -2.1788000000000003  -4.1908 
C  0.4314  -2.2027  -5.571300000000001 
H  -0.2918000000000003  -2.6943  -5.942400000000001 
C  1.2988  -1.513  -6.415800000000001 
H  1.1716999999999995  -1.5452000000000004  -7.356900000000001 
C  2.3423000000000007  -0.7816000000000001  -5.884100000000001 
H  2.9281999999999995  -0.30189999999999984  -6.457000000000001 
C  2.5310999999999995  -0.7506000000000004  -4.512100000000001 
H  3.2497999999999996  -0.24819999999999975  -4.1439 
C  1.6787  -1.4474  -3.6748000000000003 
H  1.8216999999999999  -1.4259000000000004  -2.7364000000000015 
C  0.40280000000000005  -4.0915  -2.5744000000000007 
H  1.1397000000000004  -3.7371000000000003  -2.0341000000000005 
H  0.7587000000000002  -4.7072  -3.2497000000000007 
H  -0.22660000000000036  -4.5688  -1.9957000000000011 
C  -0.058399999999999785  2.6170999999999998  2.0724 
H  -0.7552000000000003  3.0783999999999994  2.6219 
C  0.9177  1.9394999999999998  3.012699999999999 
C  0.6121999999999996  1.8255  4.369199999999999 
H  -0.20940000000000047  2.1774999999999993  4.691899999999999 
C  1.4852999999999996  1.2062999999999997  5.257699999999998 
H  1.2702  1.1513999999999998  6.181800000000001 
C  2.672999999999999  0.6680999999999999  4.7843 
H  3.2646000000000006  0.22549999999999937  5.380000000000001 
C  2.9934000000000003  0.7778999999999998  3.4364999999999988 
H  3.8082000000000003  0.4104000000000001  3.1137999999999995 
C  2.1306000000000003  1.4234  2.5577999999999985 
H  2.3686999999999996  1.5129000000000001  1.6423999999999985 
C  0.6075999999999997  3.6571000000000007  1.1745999999999999 
H  1.2003000000000004  3.2071999999999994  0.5362999999999989 
H  1.1317000000000004  4.2763  1.7248 
H  -0.08009999999999984  4.1558  0.6855999999999991 
