22
unq_CSD-QITKEL-02-a
N  0.47339999999999993  0.8691999999999999  -1.7057999999999998 
N  1.7332999999999998  -0.9332  0.16670000000000007 
N  1.4969  1.0867  -3.6412 
H  2.1045  1.016  -4.2448999999999995 
N  2.1585  -1.6911  1.1961000000000004 
N  3.4034999999999997  -2.0252  1.0056000000000003 
N  3.832  -1.4665  -0.15399999999999991 
C  -0.36730000000000007  1.5605000000000002  -2.5768999999999997 
C  -1.6531000000000002  2.0557  -2.392 
H  -2.1055  1.9628  -1.5853 
C  -2.223  2.6977  -3.4829999999999997 
H  -3.0797  3.0477  -3.399 
C  -1.5598  2.839  -4.7 
H  -1.9863  3.2739000000000003  -5.4031 
C  -0.29480000000000006  2.3533  -4.8849 
H  0.15259999999999996  2.4557  -5.693 
C  0.28439999999999993  1.7017000000000002  -3.8093 
C  1.5916  0.6137  -2.399 
C  2.8296  -0.07360000000000005  -1.9213999999999998 
H  3.1022  -0.6990000000000001  -2.6119 
H  3.529  0.5954  -1.8556 
C  2.7959  -0.8149000000000001  -0.6357999999999997 
