22
unq_CSD-QIWWOI-02-a
N  0.6799999999999997  -0.6245  -1.8103999999999996 
N  -1.5403000000000002  0.6726000000000001  -1.3955000000000002 
C  -1.2222000000000004  0.4950999999999999  -2.6448 
C  -0.026200000000000223  -0.18509999999999982  -2.922500000000001 
C  1.8091  -1.2118  -2.3016000000000005 
C  1.8294999999999995  -1.1507  -3.671800000000001 
C  -2.9280000000000004  2.6677  -1.6702000000000012 
C  -2.7207000000000003  1.4252000000000002  -1.0978000000000012 
C  0.6650999999999998  -0.5004  -4.0779 
C  -3.6547000000000005  0.9140000000000001  -0.22660000000000124 
C  -4.077500000000001  3.3777  -1.3819999999999997 
C  -4.809500000000001  1.6325000000000003  0.0497999999999994 
C  -5.010400000000001  2.8579  -0.5266000000000002 
H  -5.7746  3.3521  -0.3392999999999997 
H  -5.4378  1.2505000000000002  0.6169999999999991 
H  -3.5433000000000003  0.04349999999999987  0.13229999999999897 
H  -4.1996  4.2183  -1.7933000000000003 
H  -2.2874000000000003  2.9829  -2.2386999999999997 
H  -1.7778000000000005  0.7819000000000003  -3.3260000000000005 
H  0.3938999999999995  -0.3115000000000001  -4.9503 
H  2.5223999999999993  -1.4759  -4.216700000000001 
H  2.4162999999999997  -1.5753  -1.7147000000000006 
