31
unq_CSD-QOPLEO-02-b
N  1.6054000000000002  -1.3413  0.4828000000000001 
N  1.0111  -0.07130000000000003  -1.7195999999999998 
C  1.9625000000000001  0.07869999999999999  -3.6239 
C  2.3056  0.5029  -5.0363 
C  1.1234  1.0979999999999999  -5.7367 
H  0.7954000000000001  1.8689999999999998  -5.2287 
H  0.41270000000000007  0.426  -5.8057 
H  1.3870000000000002  1.3883  -6.6353 
C  3.4731000000000005  1.49  -4.962899999999999 
H  3.1997999999999998  2.2817  -4.4534 
H  3.7318000000000007  1.7587000000000002  -5.8688 
H  4.234500000000001  1.0626  -4.518 
C  2.7812  -0.7499000000000001  -5.8292 
H  2.0471000000000004  -1.3969999999999998  -5.8894 
H  3.5403000000000002  -1.1615000000000002  -5.3652 
H  3.0555000000000003  -0.48240000000000005  -6.7307 
C  2.1009  -0.8366000000000001  -1.7519 
C  2.4465000000000003  -1.5793  -0.5507999999999997 
C  3.5072  -2.459  -0.4569000000000001 
H  4.072900000000001  -2.5982  -1.2070999999999996 
C  3.7471000000000005  -3.1361  0.7221000000000002 
C  4.8955  -4.1033  0.8455000000000004 
H  5.2687  -4.2824  -0.04279999999999973 
H  4.5764000000000005  -4.9412  1.2404000000000002 
H  5.5895  -3.7150999999999996  1.4181 
C  2.8811999999999998  -2.888  1.7866 
H  3.0102  -3.3341000000000003  2.6162 
C  1.8383999999999998  -1.9985999999999997  1.6398000000000001 
H  1.2632  -1.8415999999999997  2.3798000000000004 
N  0.8991  0.546  -2.9425999999999997 
N  2.7442  -0.7836  -2.9177 
