70
unq_CSD-COFBAB-02-a
N  1.9965000000000002  -1.2028000000000008  -0.2543 
N  1.5332  0.454699999999999  -1.705 
N  3.6773  -0.5759000000000007  -1.8539 
C  2.7912  -2.0948  0.5246 
C  2.5705  -3.486300000000001  0.35939999999999994 
C  3.2845000000000004  -4.368900000000001  1.1757 
C  4.1659999999999995  -3.9198000000000004  2.1182 
C  4.3594  -2.5600000000000005  2.2882 
C  3.6635999999999997  -1.6242  1.5199999999999998 
C  1.5773000000000001  -3.9948000000000006  -0.663 
C  0.24540000000000006  -4.354400000000001  -0.012300000000000089 
C  2.1122000000000005  -5.182600000000001  -1.4742000000000002 
C  3.8388  -0.14200000000000124  1.7945 
C  5.128000000000001  0.4153000000000002  1.2116 
C  3.8051000000000004  0.1966000000000001  3.2854 
C  2.4394  -0.4664999999999999  -1.2850000000000001 
C  4.502200000000001  -1.7808000000000002  -1.7859 
C  4.336100000000001  0.5950999999999986  -2.4566 
C  1.5332  0.9077999999999999  -3.0608000000000004 
C  1.5514000000000001  2.2972  -3.3266999999999998 
C  1.6046000000000005  2.7346000000000004  -4.6415999999999995 
C  1.6162999999999998  1.8333999999999993  -5.6956 
C  1.5175999999999998  0.48240000000000016  -5.4387 
C  1.4592  -0.008100000000000662  -4.1353 
C  1.5240999999999998  3.3333999999999993  -2.2146 
C  2.7782  4.2279  -2.2297000000000002 
C  0.27000000000000046  4.2179  -2.3128 
C  1.2774999999999999  -1.5071000000000003  -3.9477 
C  -0.0674999999999999  -1.9604000000000008  -4.5453 
C  2.4303  -2.3184000000000005  -4.5737 
H  3.1544  -5.304  1.0705 
H  4.6453  -4.538500000000001  2.6571999999999996 
H  4.9783  -2.256500000000001  2.9405 
H  1.4038000000000004  -3.2491000000000003  -1.3061 
H  0.3816000000000006  -5.0784  0.6341999999999999 
H  -0.3872  -4.647200000000001  -0.7015 
H  -0.11599999999999966  -3.5687000000000006  0.4495 
H  2.9445000000000006  -4.9241  -1.9215 
H  1.4479000000000006  -5.4451  -2.1445 
H  2.2851  -5.9368  -0.8723000000000001 
H  3.0772000000000004  0.33830000000000027  1.3582999999999998 
H  5.1572000000000005  1.3841  1.3508 
H  5.162300000000001  0.22100000000000009  0.25149999999999995 
H  5.894100000000001  -0.0031999999999996476  1.6569999999999998 
H  2.9866  -0.16580000000000084  3.6851000000000003 
H  3.822  1.1692999999999998  3.401 
H  4.585999999999999  -0.19819999999999993  3.7279999999999998 
H  5.097600000000001  -1.7260000000000009  -1.0101 
H  5.0375000000000005  -1.8563  -2.6041 
H  3.924500000000001  -2.5678  -1.7005000000000001 
H  4.258400000000001  0.5473999999999997  -3.4325 
H  5.283500000000001  0.6024999999999991  -2.2046 
H  3.9060999999999995  1.4140999999999995  -2.1340000000000003 
H  1.6337000000000002  3.6656999999999993  -4.8243 
H  1.6921  2.1456999999999997  -6.5889 
H  1.4897  -0.12819999999999965  -6.1662 
H  1.4963000000000006  2.8505000000000003  -1.3399 
H  3.5766999999999998  3.6732999999999993  -2.1034 
H  2.7197000000000005  4.8856  -1.5059 
H  2.8378000000000005  4.6936  -3.0902000000000003 
H  0.3191000000000006  4.7666  -3.1243999999999996 
H  0.21860000000000035  4.8018  -1.5277 
H  -0.5286  3.651  -2.3514 
H  1.2614999999999998  -1.6963000000000008  -2.9661 
H  -0.7946  -1.4379000000000008  -4.1472 
H  -0.20579999999999998  -2.9119  -4.3513 
H  -0.05790000000000006  -1.8228000000000009  -5.5146 
H  2.3843000000000005  -2.2517000000000005  -5.5499 
H  2.3500000000000005  -3.2581000000000007  -4.3062000000000005 
H  3.2878999999999996  -1.9621000000000004  -4.2613 
