27
unq_CSD-COFRIA-02-a
N  -0.6998999999999995  1.3742  -1.1328 
N  -1.686399999999999  0.0068000000000000005  0.9543000000000004 
C  -0.3160999999999987  1.6954  -2.3728999999999996 
H  0.24899999999999878  1.178  -2.9005 
C  -0.8854000000000006  2.9309  -2.7752999999999997 
H  -0.7738000000000014  3.3543999999999996  -3.5961999999999996 
C  -1.6355000000000004  3.3792999999999997  -1.7125 
H  -2.120099999999999  4.1722  -1.6753 
C  -1.5298999999999996  2.403  -0.6810999999999998 
C  -2.302199999999999  2.3226999999999998  0.4802000000000004 
C  -2.4465000000000003  1.145  1.2183000000000006 
C  -3.422599999999999  0.8254  2.2074000000000003 
H  -4.0387  1.4081000000000001  2.5887 
C  -3.2743  -0.5169  2.4879000000000002 
H  -3.7889999999999997  -1.0203  3.0770000000000004 
C  -2.1903000000000006  -0.9788  1.7093000000000003 
H  -1.8683999999999994  -1.8517  1.7193999999999998 
C  -2.9982000000000006  3.5580999999999996  0.9270999999999998 
C  -4.375  3.6969  1.0202000000000004 
H  -4.938699999999999  3.0008999999999997  0.7677999999999998 
C  -4.8980999999999995  4.8922  1.4958000000000005 
H  -5.8169  5.0036000000000005  1.5856 
C  -4.030899999999999  5.9123  1.8334000000000006 
H  -4.391299999999999  6.7125  2.1401 
C  -2.2124000000000006  4.6494  1.3008000000000002 
H  -1.2881  4.5623000000000005  1.2384 
N  -2.7025000000000006  5.8127  1.7437 
