72
unq_CSD-DANXAU-02-a
N  0.4302999999999999  -1.4487999999999999  2.0336 
N  -1.1711  0.9008  1.5024000000000006 
C  0.9800999999999997  -2.6168  1.6408000000000005 
H  1.3455999999999997  -2.6578  0.7635000000000001 
C  1.0492000000000004  -3.737  2.4058 
H  1.4324999999999997  -4.5396  2.0710000000000006 
C  0.5441999999999996  -3.6636  3.6815000000000007 
H  0.5554999999999999  -4.4252  4.2483 
C  0.029300000000000104  -2.4905  4.123 
H  -0.2932999999999999  -2.4256  5.013300000000001 
C  -0.03529999999999989  -1.3669  3.2794 
C  -0.5676999999999999  -0.04520000000000002  3.8031000000000006 
C  -2.05  -0.2501  4.2184 
H  -2.5874  -0.3218  3.3897000000000004 
H  -2.1141  -1.1244  4.680400000000001 
C  -2.7008  0.7779  5.095600000000001 
C  -2.7912  0.5644  6.476000000000001 
H  -2.4125  -0.21599999999999997  6.8651 
C  -3.429  1.4865  7.2635000000000005 
H  -3.485  1.3328000000000002  8.1988 
C  -3.9924  2.6306  6.743500000000001 
H  -4.423  3.259  7.3103 
C  -3.9175  2.8475  5.3743 
H  -4.3045  3.6260999999999997  4.9909 
C  -3.2757  1.9220000000000002  4.5681 
H  -3.2278  2.0756  3.6310000000000002 
C  0.24929999999999986  0.4038999999999999  5.0563 
H  -0.19899999999999984  1.1911  5.4548000000000005 
H  0.2145999999999999  -0.3252  5.726000000000001 
C  1.7024000000000004  0.7557  4.8132 
C  2.6546  -0.20740000000000003  4.628 
H  2.3968000000000003  -1.1227  4.6448 
C  3.9957999999999996  0.11699999999999999  4.4129000000000005 
H  4.642199999999999  -0.5694  4.291300000000001 
C  4.3697  1.4421  4.3811 
H  5.2758  1.6761  4.2127 
C  3.4497000000000004  2.4086  4.585 
H  3.7106  3.3222  4.579400000000001 
C  2.1141  2.0671  4.8076 
H  1.4762  2.7553  4.9572 
C  -0.4283999999999999  1.0921  2.7743 
H  -0.7416  1.9322  3.1933 
H  0.5315999999999996  1.2048  2.5611000000000006 
C  -2.2068000000000003  1.8502  1.2761000000000005 
C  -3.5311  1.4285  1.0030000000000001 
C  -4.5311  2.3489  0.8384 
H  -5.4067  2.0517  0.6176000000000004 
C  -4.2943  3.6944000000000004  0.9880000000000004 
H  -5.0119  4.316000000000001  0.9319000000000002 
C  -3.0143  4.136699999999999  1.2162000000000006 
H  -2.8532  5.067399999999999  1.3097000000000003 
C  -1.9459  3.2487999999999997  1.3135000000000003 
C  -3.9154999999999998  -0.06059999999999999  0.9469000000000003 
H  -3.105  -0.607  1.1564000000000005 
C  -4.4314  -0.4653  -0.4503999999999997 
H  -5.2049  0.08799999999999997  -0.6879999999999997 
H  -4.6971  -1.4096  -0.4410999999999996 
H  -3.7211  -0.3338  -1.1125999999999998 
C  -4.9849  -0.3543  1.9962 
H  -4.678  -0.04179999999999995  2.8716 
H  -5.1495999999999995  -1.3208  2.0336 
H  -5.8144  0.10850000000000004  1.7568000000000001 
C  -0.5379  3.7986  1.3920000000000003 
H  0.09350000000000014  3.0234  1.3958000000000004 
C  -0.2355999999999998  4.6524  0.13320000000000043 
H  -0.4567999999999999  4.138400000000001  -0.6710999999999996 
H  0.7154000000000003  4.889799999999999  0.12010000000000032 
H  -0.7753000000000001  5.4703  0.15560000000000018 
C  -0.28980000000000006  4.6080000000000005  2.6658 
H  -0.8197999999999999  5.431100000000001  2.6359000000000004 
H  0.6614999999999998  4.833399999999999  2.7294 
H  -0.5531999999999999  4.0769  3.4458 
