43
unq_CSD-DAZKIZ-02-a
N  1.6505  -1.0451000000000001  -0.47440000000000015 
N  0.7649999999999999  -0.38970000000000005  1.7800999999999991 
N  0.32579999999999987  -0.08689999999999998  3.0472 
C  2.0589999999999997  -1.2205  -1.7369000000000003 
H  1.5417999999999998  -0.8845000000000001  -2.4337999999999997 
C  2.3866  -1.5251000000000001  0.5439000000000007 
C  1.8216999999999999  -1.2076  1.8466000000000005 
C  3.6413  -2.2119  0.25489999999999924 
C  1.1473999999999998  -0.7497  3.8461 
C  2.077  -1.5122  3.1956000000000007 
C  5.2183  -3.0408999999999997  -1.3041999999999998 
H  5.4851  -3.1775  -2.1850000000000005 
C  5.6173  -3.3326000000000002  1.049199999999999 
H  6.1561  -3.6353999999999997  1.7430000000000003 
C  4.0394  -2.367  -1.0662000000000003 
C  4.4379  -2.7141  1.3257999999999992 
H  4.154  -2.6181  2.2066 
C  6.0152  -3.5191  -0.29049999999999976 
H  6.81  -3.9603  -0.48680000000000057 
C  2.7525  -0.08689999999999998  5.5335 
H  2.7246  0.8029999999999999  5.1488 
H  2.9591  -0.0131  6.4792000000000005 
C  1.4186999999999999  -0.8180000000000001  5.3203 
C  0.2802  -0.4395  6.3185 
H  0.04389999999999983  0.48540000000000005  6.2011 
H  0.5786  -0.5817000000000001  7.2179 
H  -0.49240000000000006  -0.9879  6.1485 
C  3.2512  -1.8981000000000001  -2.0305 
H  3.4959  -2.0236  -2.9175000000000004 
C  2.937  -2.1603000000000003  4.209199999999999 
H  3.4283  -2.9652000000000003  3.9435000000000002 
C  1.8975  -2.2876000000000003  5.385199999999999 
C  0.7573999999999999  -3.3068  5.000399999999999 
H  0.13290000000000002  -3.3769  5.725099999999999 
H  1.1454  -4.169  4.827399999999999 
H  0.3042  -2.9984  4.213900000000001 
C  2.4989  -2.7474  6.749599999999999 
H  3.2241  -2.1639  6.9938 
H  2.8302  -3.6464999999999996  6.6677 
H  1.8216999999999999  -2.716  7.426499999999999 
C  3.7716000000000003  -0.9491  4.825799999999999 
H  4.4395999999999995  -1.2759  5.450099999999999 
H  4.2188  -0.4469  4.1258 
