47
unq_CSD-YADFER-02-a
N  0.5486000000000004  1.4029000000000007  1.1313999999999993 
N  2.1289000000000007  0.46280000000000054  -0.19120000000000115 
Si  -0.20979999999999954  2.5735  2.247 
C  1.9876000000000005  1.4648000000000003  0.9094999999999995 
H  2.2399999999999993  2.3733000000000004  0.5756999999999994 
C  2.8435999999999995  1.1024000000000003  2.1060999999999996 
C  2.5406000000000004  -0.0038999999999997925  2.8874999999999993 
H  1.7721  -0.5254999999999996  2.6911999999999985 
C  3.355200000000001  -0.35179999999999945  3.9566 
H  3.1345  -1.1128999999999998  4.4817 
C  4.4875  0.391  4.271599999999999 
C  4.7786  1.4954  3.4863999999999997 
H  5.5462  2.0180000000000007  3.6826999999999988 
C  3.9655999999999993  1.8507000000000007  2.4124 
H  4.1839  2.6121000000000008  1.8884999999999987 
C  5.359800000000001  0.015500000000000291  5.449399999999999 
H  4.8898  0.22580000000000044  6.2833999999999985 
H  6.1978  0.5220000000000002  5.4106999999999985 
H  5.5562  -0.9440999999999997  5.418199999999999 
C  3.2726999999999995  0.38980000000000015  -0.7559000000000005 
H  3.9350999999999994  0.9923000000000002  -0.43840000000000057 
C  3.6825  -0.5041999999999995  -1.826200000000001 
C  4.972600000000001  -0.33059999999999956  -2.346400000000001 
H  5.5264  0.3620000000000001  -2.008800000000001 
C  5.4430000000000005  -1.1529999999999996  -3.3416000000000006 
H  6.3182  -1.0189999999999997  -3.686700000000001 
C  4.6557  -2.1794  -3.851800000000001 
C  3.3725999999999994  -2.3561999999999994  -3.3291000000000013 
H  2.8236  -3.0532999999999997  -3.6655000000000006 
C  2.8867000000000003  -1.5310999999999995  -2.3264000000000005 
H  2.0126999999999997  -1.6666999999999996  -1.9800000000000004 
C  5.192200000000001  -3.0944999999999996  -4.9221 
H  5.348  -2.5814999999999997  -5.7423 
H  4.542000000000001  -3.8065999999999995  -5.100800000000001 
H  6.035800000000001  -3.4911999999999996  -4.620700000000001 
C  -1.7351  3.3189  1.5008999999999997 
H  -1.5043999999999995  3.7553  0.6532 
H  -2.1107  3.980500000000001  2.1172999999999984 
H  -2.3956  2.6140000000000008  1.3358999999999988 
C  -0.577  1.6777000000000006  3.8352999999999984 
H  -1.1631  0.9146000000000001  3.6514999999999986 
H  -1.0216000000000003  2.2884  4.459199999999999 
H  0.26090000000000035  1.3585000000000003  4.2315999999999985 
C  1.0036000000000005  3.952  2.542399999999999 
H  1.8247  3.5868  2.9312999999999985 
H  0.6115000000000004  4.604900000000001  3.1587999999999994 
H  1.2123999999999997  4.391300000000001  1.690999999999999 
