16
unq_CSD-YAVLUD-02-a
N  -0.6036999999999999  -1.0778  -1.8467999999999998 
N  0.8220999999999998  1.1673999999999998  -1.4570999999999996 
C  -1.2857999999999996  -2.1619  -2.0712 
H  -1.4322999999999997  -2.7286  -1.3481999999999998 
C  -1.8045  -2.5385  -3.2756999999999996 
H  -2.3099  -3.3143000000000002  -3.3636 
C  -1.5480999999999998  -1.7207000000000001  -4.3595 
H  -1.879  -1.9314  -5.2031 
C  -0.7923999999999998  -0.5878000000000001  -4.162599999999999 
H  -0.5938999999999997  -0.031500000000000306  -4.8817 
C  -0.3354999999999997  -0.2791000000000001  -2.9175 
C  0.4455999999999998  0.8841000000000001  -2.6445999999999996 
C  1.9580000000000002  2.4398  0.009800000000000253 
N  1.5994000000000002  2.2619  -1.2392999999999996 
N  2.3477000000000006  2.6944  1.0385000000000004 
H  0.6823000000000006  1.6201999999999996  -3.4238999999999997 
