32
unq_CSD-YEGFEV-02-a
N  0.9734999999999998  -0.6056999999999997  1.9825999999999997 
N  1.1457  0.7331000000000003  1.9539 
C  1.7131999999999998  1.3506  2.971 
C  2.1028000000000002  2.8541  2.9939 
C  0.8787  3.6381000000000006  2.6714 
C  3.1288  3.1716000000000006  2.0801999999999996 
C  2.5305  3.1774999999999993  4.3014 
C  1.898  0.38809999999999967  3.9054 
C  1.3705  -0.7409999999999997  3.3636 
C  1.3002999999999998  -2.1386000000000003  3.9157 
C  0.8072000000000001  -2.019  5.3621 
C  2.7154  -2.7364  3.9616 
C  0.4482999999999999  -3.0932000000000004  3.0938 
H  0.5952999999999999  3.4204999999999997  1.7908999999999997 
H  1.0843  4.5653  2.7173 
H  0.18280000000000007  3.4381999999999993  3.2855 
H  2.8736999999999995  2.9696999999999996  1.1883 
H  3.8919999999999995  2.6561000000000003  2.3167 
H  3.3377  4.0949  2.1479 
H  1.836  2.9814999999999996  4.9190000000000005 
H  2.7456999999999994  4.100700000000001  4.3485 
H  3.2992999999999997  2.662  4.5161 
H  2.3057  0.48609999999999953  4.7583 
H  0.7506000000000002  -2.8854  5.744299999999999 
H  -0.042300000000000004  -1.6074000000000002  5.370100000000001 
H  1.4237  -1.4937  5.866 
H  3.2943999999999996  -2.1758  4.4633 
H  3.0474999999999994  -2.8207  3.0754 
H  2.6753  -3.5949999999999998  4.368 
H  -0.43420000000000003  -2.7443  3.0479000000000003 
H  0.43090000000000006  -3.9478  3.5092999999999996 
H  0.8032999999999999  -3.1755  2.2157 
