21
unq_CSD-YEJQAG-02-b
N  0.6249999999999991  -0.14320000000000022  -2.1144999999999996 
N  -1.0774  -1.5203000000000002  -0.6069 
C  1.5264999999999995  0.5423  -2.8133 
C  1.7703999999999995  0.21519999999999984  -4.160299999999999 
C  1.1065999999999994  -0.7814000000000001  -4.7885 
C  0.1532  -1.5261  -4.0799 
C  -0.5986000000000002  -2.5857  -4.6377 
C  -1.4870999999999999  -3.2726  -3.8788 
C  -1.6780999999999997  -2.9373  -2.5267999999999997 
C  -0.9637000000000002  -1.9186  -1.9387999999999999 
C  -0.04640000000000022  -1.1914000000000002  -2.7195 
C  2.2816  1.6662999999999997  -2.1851 
H  2.4209000000000005  0.71  -4.6444 
H  1.2848999999999995  -0.9740000000000002  -5.6998999999999995 
H  -0.4815000000000005  -2.8179000000000003  -5.5525 
H  -1.984  -3.9850000000000003  -4.262499999999999 
H  -2.3103  -3.4219  -2.0107999999999997 
H  2.8023  1.3350999999999997  -1.4629999999999999 
H  2.8546000000000005  2.063  -2.8316999999999997 
H  1.6697999999999995  2.3176  -1.8617 
H  -1.6623  -1.9725000000000001  -0.010499999999999954 
