35
unq_CSD-YEVBEH-02-a
N  1.1981  -1.9862  0.23130000000000095 
N  0.5367000000000001  -0.7845  1.9751000000000012 
C  1.6239999999999999  -3.1174999999999997  -0.5159999999999982 
H  1.8357999999999999  -3.8529  0.1269999999999989 
N  1.8098999999999998  -2.785  2.4160000000000004 
C  1.2143  -1.8577  1.5543000000000013 
C  0.7745000000000001  -0.2197  3.318200000000001 
H  1.2738  -0.8935999999999997  3.863500000000002 
C  0.514  -3.6136  -1.4483999999999995 
H  -0.315  -3.721  -0.9367999999999981 
H  0.7734000000000001  -4.4758  -1.8354999999999997 
H  0.3746  -2.9609  -2.165399999999998 
C  2.8821000000000003  -2.8201  -1.3171 
H  2.6821  -2.1516  -2.003899999999998 
H  3.202  -3.6435  -1.741299999999999 
H  3.5749  -2.4718  -0.7146000000000008 
C  1.13  -3.3145  3.560600000000001 
H  0.2611  -2.8518  3.6648999999999994 
H  1.6694  -3.1404  4.3718 
C  0.8879  -4.7907  3.4327000000000005 
H  0.6004  -4.9965  2.5203999999999986 
H  0.1984  -5.0652  4.068899999999999 
H  1.7234  -5.2728  3.6279000000000003 
C  3.1825  -3.2125  2.2006000000000014 
H  3.1879  -4.05  1.6889000000000003 
H  3.6203000000000003  -3.355  3.0656999999999996 
H  3.6646  -2.521  1.7024000000000008 
C  -0.5506  0.05830000000000002  3.9948000000000015 
H  -1.0737  0.6776000000000004  3.442800000000002 
H  -0.3907  0.45940000000000003  4.8734 
H  -1.0446  -0.7809999999999997  4.102499999999999 
C  1.6013  1.0435000000000003  3.2440999999999995 
H  2.4486000000000003  0.8534999999999999  2.7897 
H  1.7818  1.3708000000000005  4.149699999999999 
H  1.1083999999999998  1.7262  2.7425999999999995 
