17
unq_CSD-YUCVUO-02-a
N  1.0886  -0.1993999999999998  -1.6208 
N  1.2313999999999998  -1.1595999999999997  0.9296999999999995 
N  3.0798  -2.3989  1.5076999999999998 
C  2.2723  -0.8020999999999998  -1.7520000000000007 
C  2.9796  -1.5122999999999998  -0.6982000000000008 
C  2.3752999999999997  -1.6618  0.5940999999999992 
N  2.7242  -0.6589  -3.0009000000000006 
C  4.2164  -2.081  -0.9233000000000002 
H  4.6134  -1.9796999999999998  -1.7586000000000004 
N  0.7997999999999998  0.33370000000000033  -2.8311000000000006 
C  4.886100000000001  -2.7992  0.05459999999999976 
H  5.724  -3.1661  -0.11460000000000026 
C  4.293900000000001  -2.9558  1.2615999999999996 
H  4.7202  -3.4469  1.9263999999999992 
N  1.7802000000000002  0.05689999999999973  -3.6425000000000005 
H  1.3971  -0.7308999999999997  1.703899999999999 
H  0.7337000000000002  -1.8752999999999997  1.1536999999999997 
