58
unq_CSD-GEPJET-02-a
N  -0.734  -0.09159999999999968  -2.4138 
N  1.4523000000000001  -0.21110000000000007  -1.9162 
Si  -1.2229999999999999  4.006100000000001  -3.2733 
Si  3.1530000000000005  0.0019000000000000128  -2.1721 
N  -1.6279  2.33  -3.3044000000000002 
H  -0.9634  1.7936000000000005  -3.0938999999999997 
C  -2.83  1.6665  -3.6075999999999997 
C  -3.9238999999999997  2.4067000000000007  -4.0466 
H  -3.8555  3.352900000000001  -4.1135 
C  -5.1366  1.7656  -4.3957999999999995 
H  -5.8704  2.2913000000000006  -4.6918 
C  -5.2793  0.42540000000000067  -4.3163 
H  -6.1064  0.017100000000000115  -4.542199999999999 
C  -4.1911000000000005  -0.35879999999999956  -3.8960999999999997 
C  -4.3271  -1.7732999999999999  -3.8752 
H  -5.1533  -2.1697999999999995  -4.1286000000000005 
C  -3.2893  -2.5685999999999996  -3.4989 
H  -3.3805  -3.5135999999999994  -3.5217 
C  -2.0812  -1.9886999999999997  -3.0744 
H  -1.3646  -2.5546999999999995  -2.8128 
C  -1.9083  -0.6301999999999994  -3.0263 
C  -2.9525  0.24020000000000064  -3.4926 
C  0.47219999999999995  -0.4845999999999995  -2.7734 
C  0.7126999999999999  -1.1543999999999999  -4.0905000000000005 
C  0.3197000000000001  -0.5461999999999998  -5.2676 
H  -0.14270000000000005  0.28330000000000055  -5.2394 
C  0.5969000000000002  -1.1403999999999996  -6.4991 
H  0.35029999999999983  -0.7005999999999997  -7.3031 
C  1.2269999999999999  -2.3676999999999997  -6.5513 
H  1.3978000000000002  -2.78  -7.3899 
C  1.6113  -3.0006  -5.3742 
H  2.0506  -3.8419999999999996  -5.4069 
C  1.3523  -2.4004  -4.151199999999999 
H  1.6101  -2.8375  -3.3491 
C  0.6057000000000001  4.035800000000001  -2.9009 
H  1.0931000000000002  3.5843  -3.6201999999999996 
H  0.7734999999999999  3.575500000000001  -2.0521 
H  0.9096000000000002  4.965600000000001  -2.8331 
C  -1.5149  4.820100000000001  -4.9143 
H  -1.3605  4.1705  -5.632899999999999 
H  -0.8999999999999999  5.5749  -5.0192 
H  -2.4395  5.141900000000001  -4.9596 
C  -2.1753  4.887200000000001  -1.9684 
H  -2.2511  5.8356  -2.2045 
H  -1.7107  4.8001  -1.1105 
H  -3.0705  4.4957  -1.8974 
C  3.4288999999999996  1.1134000000000004  -3.6473 
H  3.1609  0.6444999999999999  -4.4641 
H  4.3775  1.3524000000000003  -3.7027 
H  2.8925  1.9279000000000002  -3.5465 
C  3.7423  0.8547000000000002  -0.6219999999999999 
H  3.5553  0.2882000000000007  0.15470000000000006 
H  3.2744999999999997  1.7109000000000005  -0.5222 
H  4.7071  1.0164  -0.6843999999999999 
C  4.1404  -1.5563999999999996  -2.4012 
H  3.9519  -1.9352999999999998  -3.285 
H  3.8922999999999996  -2.2045  -1.7086 
H  5.0954  -1.3514  -2.3298 
