24
unq_CSD-GITSAF-02-a
N  -0.6833999999999999  -1.9699  -0.2916999999999996 
N  -1.6121999999999999  0.125  -1.6252999999999997 
C  -0.36319999999999997  -3.1942  0.20020000000000016 
H  0.3126  -3.3597  0.8456999999999999 
C  -1.169  -4.175  -0.3783999999999996 
H  -1.1456  -5.1067  -0.19689999999999985 
N  -4.3088999999999995  1.5842999999999998  -1.3021999999999998 
C  -2.0164  -3.5219  -1.2769 
H  -2.6779  -3.9215  -1.8293 
C  -1.6975  -2.17  -1.2003999999999997 
C  -2.1422  -1.0099  -1.9067999999999998 
H  -2.8166  -1.0773000000000001  -2.5707999999999998 
C  -2.0563  1.3011  -2.3954999999999997 
H  -2.4505999999999997  0.9973999999999998  -3.2521999999999998 
H  -1.2709  1.8650999999999995  -2.6068999999999996 
C  -3.0715  2.1300000000000003  -1.6524999999999999 
C  -2.8099999999999996  3.4568  -1.3450999999999997 
H  -1.9733999999999998  3.8393  -1.5788999999999997 
C  -3.7615  4.2332  -0.6974 
H  -3.5747  5.141  -0.4929999999999999 
C  -4.9813  3.6851999999999996  -0.3482999999999996 
H  -5.6287  4.216099999999999  0.09930000000000039 
C  -5.2606  2.3675  -0.6477999999999997 
H  -6.1013  1.9941999999999998  -0.4086999999999996 
