48
unq_CSD-GIYBAU-02-a
N  1.356  -0.9928000000000001  -1.3405000000000005 
N  1.7890000000000001  0.7753000000000001  0.9138999999999999 
N  9.2132  -0.5656000000000001  -0.843 
C  1.0006000000000002  -1.8652000000000002  -2.2806999999999995 
H  0.10370000000000013  -2.1396  -2.4353999999999996 
C  2.0976  -2.3325  -3.0191 
H  2.0798  -2.9602  -3.732000000000001 
C  3.1939  -1.706  -2.507900000000001 
H  4.0893  -1.8056  -2.8056 
C  2.7483000000000004  -0.875  -1.442400000000001 
C  3.5469999999999997  -0.10089999999999999  -0.6041000000000007 
C  3.1098999999999997  0.6898999999999997  0.4771000000000001 
C  3.9419000000000004  1.3798  1.3918 
H  4.884  1.4794999999999998  1.3310999999999993 
C  3.1349  1.8769  2.375 
H  3.4053000000000004  2.3869  3.1290999999999993 
C  1.8352  1.4897999999999998  2.0557999999999996 
H  1.0725  1.7020999999999997  2.5806999999999984 
C  5.0306  -0.19540000000000002  -0.7862000000000009 
C  5.8155  0.9034999999999997  -1.0898000000000003 
H  5.4063  1.741  -1.2720000000000002 
C  7.1911  0.7843999999999998  -1.1289999999999996 
H  7.7261999999999995  1.5389999999999997  -1.3503000000000007 
C  7.794  -0.4336  -0.8489000000000004 
C  7.0152  -1.5351000000000001  -0.5492000000000008 
H  7.4226  -2.3713  -0.3552999999999997 
C  5.6419  -1.4109  -0.5374999999999996 
H  5.107  -2.1733000000000002  -0.3534000000000006 
C  9.9221  -1.5973000000000002  -1.4521999999999995 
C  9.487400000000001  -2.5784000000000002  -2.3316 
H  8.575700000000001  -2.6392  -2.5900999999999996 
C  10.433100000000001  -3.4637000000000002  -2.8193 
H  10.155800000000001  -4.1549  -3.408900000000001 
C  11.773700000000002  -3.3731  -2.4726 
H  12.3955  -3.9983000000000004  -2.8270999999999997 
C  12.2087  -2.3804  -1.6186000000000007 
H  13.1296  -2.3092  -1.3972999999999995 
C  11.284500000000001  -1.4846000000000001  -1.0838999999999999 
C  11.3879  -0.36370000000000013  -0.21230000000000082 
C  12.4459  0.20969999999999978  0.5162999999999993 
H  13.327100000000002  -0.13460000000000005  0.4300999999999995 
C  12.199800000000002  1.2723999999999998  1.3565000000000005 
H  12.9052  1.6452  1.8735999999999997 
C  10.9135  1.7953000000000001  1.4466 
H  10.7657  2.5473999999999997  2.0068 
C  9.8466  1.2698  0.7532999999999994 
H  8.974  1.6347999999999998  0.8414000000000001 
C  10.0968  0.18379999999999974  -0.07910000000000039 
