77
unq_CSD-PIFSUU-02-a
N  -1.0409000000000006  -1.8679000000000001  -1.1488 
N  -2.044500000000001  -0.05580000000000007  -0.30489999999999995 
C  -2.169600000000001  -1.1061  -1.1561 
C  -3.2654000000000014  -1.4134  -1.9773 
H  -4.041500000000001  -0.8649  -1.98 
C  -3.1891  -2.5241  -2.7755 
H  -3.9087000000000014  -2.7401999999999997  -3.3552999999999997 
C  -2.0612000000000013  -3.3369999999999997  -2.7397 
H  -2.0112000000000005  -4.1196  -3.2773000000000003 
C  -1.0083000000000002  -2.9856  -1.9048 
C  0.1676000000000002  -3.8983  -1.7204 
C  1.3743999999999996  -3.6465  -2.3975 
C  2.4564999999999984  -4.4849  -2.1479 
H  3.2791999999999994  -4.314500000000001  -2.5901 
C  2.3751999999999995  -5.5486  -1.2864 
C  1.1572999999999993  -5.8022  -0.6496999999999999 
H  1.0853000000000002  -6.5472  -0.06430000000000002 
C  0.04239999999999888  -4.986000000000001  -0.8524 
C  -3.2042  0.7014  0.05590000000000006 
C  -3.717500000000001  1.693  -0.8047 
C  -4.827900000000001  2.4254  -0.37440000000000007 
H  -5.1784  3.1066000000000003  -0.9359 
C  -5.4274000000000004  2.1844  0.8421999999999998 
H  -6.1836  2.6929999999999996  1.1119 
C  -4.922000000000001  1.1991  1.667 
H  -5.3413  1.0343  2.5036999999999994 
C  -3.8134000000000015  0.44110000000000005  1.3028000000000002 
C  3.624399999999998  -6.3665  -0.9891 
H  4.241099999999999  -6.2656  -1.7699 
C  3.358999999999998  -7.8428  -0.813 
H  2.8339  -7.985  0.0018000000000000238 
H  4.2105  -8.3207  -0.7404999999999999 
H  2.860199999999999  -8.1799  -1.5864 
C  4.337399999999999  -5.7576  0.244 
H  4.5504  -4.8169  0.06690000000000018 
H  5.163999999999998  -6.2526  0.4200999999999999 
H  3.748899999999999  -5.8174  1.0248000000000002 
C  -3.1051  1.9771  -2.1653000000000002 
H  -2.456900000000001  1.2422  -2.3663 
C  -4.157200000000001  1.9942000000000002  -3.2911 
H  -4.643600000000001  1.1425  -3.2965999999999998 
H  -3.7110000000000003  2.1192  -4.1544 
H  -4.7872  2.7298  -3.1388 
C  -2.323500000000001  3.2878999999999996  -2.1369 
H  -2.9263000000000012  4.0227  -1.8984 
H  -1.9364000000000008  3.4574999999999996  -3.0204 
H  -1.6066000000000003  3.2257  -1.4717 
C  -3.309100000000001  -0.6732  2.1972999999999994 
H  -2.3262  -0.7653  2.0349000000000004 
C  -3.5032000000000014  -0.39060000000000006  3.6845999999999997 
H  -3.1445000000000007  0.4950999999999999  3.8983 
H  -3.0317000000000007  -1.0706  4.2103 
H  -4.4581  -0.4166000000000001  3.8991999999999996 
C  -3.9610000000000003  -1.9966  1.8147 
H  -4.9307  -1.9303  1.934 
H  -3.6106  -2.7099  2.3872 
H  -3.7609000000000012  -2.201  0.877 
C  1.4913999999999987  -2.5317  -3.4049 
H  0.7866999999999997  -1.8588  -3.1782000000000004 
C  1.2626999999999988  -2.9416  -4.8655 
H  1.9115000000000002  -3.6324  -5.116 
H  1.3782999999999994  -2.1598  -5.4454 
H  0.35409999999999897  -3.2923999999999998  -4.9673 
C  2.8325999999999993  -1.7939  -3.3939 
H  3.5288000000000004  -2.3764000000000003  -3.7664 
H  3.0654000000000003  -1.547  -2.4782 
H  2.7623999999999995  -0.9818  -3.9443 
C  -1.258700000000001  -5.2641  -0.09820000000000007 
H  -2.000400000000001  -4.8212  -0.6019000000000001 
C  -1.6172000000000004  -6.7767  0.03849999999999998 
H  -1.6265999999999998  -7.1925  -0.8497000000000001 
H  -2.5029000000000003  -6.8676  0.4494999999999998 
H  -0.9493000000000009  -7.2206  0.5999999999999999 
C  -1.2421000000000006  -4.6653  1.345 
H  -0.5074000000000005  -5.068099999999999  1.8568999999999998 
H  -2.0928000000000004  -4.8581  1.789 
H  -1.1128  -3.6952  1.2954 
