48
unq_CSD-UWUQAF-02-b
N  1.3735  -0.7182  1.3130000000000006 
N  -1.5029000000000003  -0.24469999999999992  1.2667000000000002 
N  2.6981  -0.6055999999999999  1.1974 
N  3.1911000000000005  -0.9956  2.3716 
C  2.234399999999999  -1.3572000000000002  3.230500000000001 
H  2.3470999999999993  -1.6677  4.1206 
C  1.0465  -1.1825999999999999  2.55 
C  -0.3086000000000002  -1.3841999999999999  3.067 
C  -0.39889999999999937  -2.0592  4.282500000000001 
H  0.39780000000000015  -2.4253  4.6492 
C  -1.5716999999999999  -2.2282  4.9861 
H  -1.5899999999999999  -2.6950000000000003  5.8134999999999994 
C  -2.7233  -1.6878000000000002  4.4361 
H  -3.5465999999999998  -1.7618  4.905100000000001 
C  -2.6883  -1.0500000000000003  3.2255000000000003 
H  -3.5040000000000004  -0.7103999999999999  2.8736999999999995 
C  -1.5077999999999996  -0.8677999999999999  2.4657999999999998 
C  4.6526  -1.0087000000000002  2.5913000000000004 
H  5.096200000000001  -0.47120000000000006  1.8877000000000006 
H  4.9869  -1.9379  2.5219000000000005 
C  5.0021  -0.45089999999999986  3.9406 
C  4.870399999999998  -1.2258  5.0802 
H  4.6008  -2.1340000000000003  5.0059000000000005 
C  5.1335999999999995  -0.6817000000000002  6.340400000000001 
H  5.003500000000001  -1.2024  7.1248000000000005 
C  5.5816  0.6068999999999996  6.4345 
H  5.771099999999999  0.9761999999999995  7.288399999999999 
C  5.7608000000000015  1.3673000000000002  5.319700000000001 
H  6.093400000000001  2.2539  5.394 
C  5.4551  0.8399000000000001  4.074400000000001 
H  5.559900000000001  1.3807  3.2997999999999994 
C  -2.7477  0.3185000000000002  0.8572000000000006 
C  -3.6125  -0.3917999999999999  0.018200000000000216 
C  -4.7860000000000005  0.20350000000000001  -0.43769999999999953 
H  -5.3635  -0.2742  -1.0222999999999995 
C  -5.1165  1.4862000000000002  -0.042899999999999494 
H  -5.9143  1.8925  -0.3583999999999996 
C  -4.2813  2.1731999999999996  0.8142000000000005 
H  -4.5258  3.0465  1.0966000000000005 
C  -3.0930999999999997  1.6197999999999997  1.2700000000000005 
C  -3.2862  -1.8091  -0.3401999999999994 
H  -3.9453000000000005  -2.1443000000000003  -0.9843000000000002 
H  -3.3083  -2.3634000000000004  0.4674000000000005 
H  -2.3912999999999993  -1.8492000000000002  -0.7382999999999997 
C  -2.1868999999999996  2.3591999999999995  2.2131 
H  -2.5175  3.2732  2.3337000000000003 
H  -1.2804000000000002  2.3846  1.8415 
H  -2.1722  1.8998999999999997  3.0785 
