25
unq_CSD-UZAPOD-02-a
N  -1.0954999999999995  -1.3482000000000003  -1.1166999999999998 
N  -0.7532999999999994  -1.5091999999999999  1.4825999999999997 
C  -1.8094999999999999  -2.2987  -0.4294999999999991 
C  -1.5735000000000001  -2.3222000000000005  0.9781999999999993 
H  -2.0309  -2.945500000000001  1.5302000000000007 
C  -1.4463  -1.484  -2.4136999999999995 
H  -1.1028000000000002  -0.9554000000000009  -3.1249000000000002 
C  -2.6064  -3.0279000000000007  -1.3064999999999998 
H  -3.1884999999999994  -3.7438000000000002  -1.0790999999999995 
C  -0.47470000000000034  -1.5477000000000007  2.950100000000001 
H  -0.00709999999999944  -0.6963000000000008  3.1852 
C  -2.3891  -2.5115999999999996  -2.5683999999999996 
H  -2.7959999999999994  -2.7955000000000005  -3.3789 
C  -0.06400000000000006  -3.1083999999999996  4.663600000000001 
H  0.266  -2.5245999999999995  5.3926 
H  0.216800000000001  -4.041500000000001  4.834 
C  -1.6536  -2.9877000000000002  4.4773 
H  -2.0065  -3.6959999999999997  3.8831000000000007 
H  -2.1266  -3.0220000000000002  5.347099999999999 
C  -1.7562999999999995  -1.6399000000000008  3.8482000000000003 
H  -1.7588999999999997  -0.9262999999999995  4.5357 
H  -2.5788  -1.5638000000000005  3.303000000000001 
C  0.3968000000000007  -2.6189  3.2963000000000005 
H  1.3343000000000007  -2.3040000000000003  3.3368 
H  0.3351000000000006  -3.3468  2.627700000000001 
