20
unq_CSD-PILLUU-02-b
N  -1.9766999999999997  0.21630000000000038  -0.9815999999999998 
N  -0.8418000000000001  1.564  1.2525 
C  -2.673  -0.3415999999999997  -1.9783 
H  -2.2715  -1.0271000000000008  -2.4989 
C  -3.9917  0.06540000000000035  -2.2736 
H  -4.4525  -0.360100000000001  -2.9864 
C  -4.6363  1.0571000000000002  -1.5667 
H  -5.5257  1.3094000000000001  -1.7847 
C  -3.9454  1.6873000000000005  -0.5127000000000002 
C  -2.6202  1.1816999999999993  -0.30810000000000004 
C  -2.0697  1.8438999999999997  0.7772000000000001 
C  -3.0246999999999997  2.793199999999999  1.2711000000000001 
C  -2.5711999999999997  3.5227000000000004  2.3888000000000003 
H  -3.1176999999999997  4.1889  2.7886 
C  -1.3182  3.2478  2.8882 
H  -1.0119999999999996  3.7342999999999993  3.6446 
C  -0.4695999999999998  2.271099999999999  2.3225000000000002 
H  0.3830999999999998  2.113999999999999  2.7106 
C  -4.1861  2.6854999999999993  0.4677000000000002 
H  -4.9844  3.1910999999999987  0.5664000000000002 
