21
unq_CSD-VEFPII-02-a
N  -1.6049000000000007  1.3425000000000002  0.2599 
N  -1.0230000000000006  -0.673  1.9318999999999997 
N  -2.1037  2.4091999999999993  -0.3918000000000008 
N  -3.1347000000000005  2.8541999999999996  0.29499999999999993 
N  -3.3324000000000007  2.0927999999999995  1.4028999999999998 
C  -2.3677  1.1759000000000004  1.3355999999999995 
C  -2.0626000000000007  0.09930000000000039  2.2695999999999996 
C  -2.8320000000000007  -0.07179999999999964  3.4371 
H  -3.5725000000000007  0.4962  3.614 
C  -2.4961  -1.0633  4.3068 
H  -2.9939  -1.1888999999999994  5.1069 
C  -1.4030000000000005  -1.9028  4.0095 
C  -0.7037000000000004  -1.7126000000000001  2.7855999999999996 
C  0.3322000000000003  -2.6098999999999997  2.4539999999999997 
H  0.7789999999999999  -2.5271  1.6202999999999994 
C  0.6972000000000005  -3.5987999999999998  3.3266 
H  1.3957999999999995  -4.1972000000000005  3.0882999999999994 
C  0.05489999999999995  -3.7451  4.571699999999999 
H  0.3440999999999992  -4.412699999999999  5.1834 
C  -0.9839000000000002  -2.9236  4.894899999999999 
H  -1.4311000000000007  -3.0378  5.7246999999999995 
