60
unq_CSD-VENSIR-02-a
N  -1.0064  -0.16200000000000014  -1.7584999999999997 
N  -0.24880000000000013  0.6357999999999997  1.9637000000000002 
C  -1.881  -1.1377000000000002  -2.2232000000000003 
C  -2.4878  -0.6961000000000002  -3.4981 
C  -3.4483000000000006  -1.2761  -4.3094 
H  -3.8336000000000006  -2.0954  -4.097099999999999 
C  -3.8088000000000006  -0.5806000000000002  -5.4562 
H  -4.4542  -0.9391  -6.0216 
C  -3.2270000000000003  0.6383000000000001  -5.7749 
H  -3.4941000000000004  1.0816  -6.5472 
C  -2.2517000000000005  1.2123  -4.9639 
H  -1.8518999999999999  2.0235000000000003  -5.183 
C  -1.9052  0.5207999999999999  -3.8173 
C  -0.9359  0.8165999999999998  -2.7365999999999997 
C  0.7927  2.0761000000000003  -1.8017000000000003 
C  2.1592000000000002  2.1289  -2.0933 
H  2.4583  1.9775  -2.9609 
C  3.0652  2.4082999999999997  -1.0838999999999999 
H  3.9734999999999996  2.4471  -1.2817999999999996 
C  2.6390000000000002  2.6318  0.21919999999999984 
H  3.2587  2.8194  0.8862000000000005 
C  1.2752  2.5731  0.5253000000000005 
C  0.3535999999999999  2.3369999999999997  -0.49899999999999967 
C  0.16069999999999995  1.8801999999999999  2.4448 
C  -0.30800000000000005  2.042  3.845300000000001 
C  -0.09770000000000012  3.0412999999999997  4.7825 
H  0.38669999999999993  3.8072999999999997  4.5729999999999995 
C  -0.6407  2.8532  6.0483 
H  -0.5165000000000002  3.5061  6.6985 
C  -1.3692  1.7008999999999999  6.361300000000001 
H  -1.7277000000000002  1.6037999999999997  7.2144 
C  -1.5658  0.7006999999999999  5.422199999999999 
H  -2.0459000000000005  -0.06820000000000004  5.63 
C  -1.0212  0.8878999999999997  4.164499999999999 
C  -0.9509000000000001  0.010199999999999765  2.9775 
C  -1.1973  -1.9704000000000002  1.8539000000000003 
C  -0.16780000000000017  -2.9126000000000003  1.9083999999999994 
H  0.32099999999999995  -3.0084  2.6929000000000007 
C  0.13939999999999997  -3.7053000000000003  0.8174999999999999 
H  0.7960999999999999  -4.3607  0.8920000000000003 
C  -0.5239  -3.5297  -0.38980000000000015 
H  -0.29390000000000005  -4.0476  -1.1272000000000002 
C  -1.531  -2.5791000000000004  -0.4942000000000002 
C  -1.9111  -1.8697000000000001  0.6573000000000002 
C  -3.1341  0.27959999999999985  0.7637 
H  -2.3369999999999997  0.7263999999999999  0.9365000000000006 
C  -4.309900000000001  0.9834  0.6943999999999999 
H  -4.3144  1.9024999999999999  0.8399000000000001 
C  -5.4839  0.32159999999999966  0.4084000000000003 
H  -6.2876  0.7868999999999997  0.3586999999999998 
C  -5.4510000000000005  -1.0439  0.19559999999999977 
H  -6.2334000000000005  -1.5008000000000001  -0.01809999999999956 
C  -4.269500000000001  -1.7234  0.30020000000000024 
H  -4.251600000000001  -2.6453  0.17710000000000026 
H  -0.5849  2.4128999999999996  -0.34079999999999977 
N  -0.12280000000000002  1.818  -2.8369999999999997 
N  0.8628999999999999  2.7854  1.8579999999999997 
N  -1.4873  -1.1715  2.9772000000000007 
N  -2.1526000000000005  -2.2971  -1.7214 
N  -3.1292  -1.0607000000000002  0.5815000000000001 
