52
unq_CSD-VOHYAU-02-a
N  1.617  -0.5127999999999999  1.0919 
N  -0.42050000000000054  -0.9375  1.7293 
C  0.8761000000000001  -1.0100000000000002  2.1261 
C  2.7066  -1.1183  3.7549 
H  2.6479999999999997  -0.6819000000000002  4.6411999999999995 
H  3.1145999999999994  -0.47129999999999983  3.1262 
C  3.6050000000000004  -2.3304  3.8628 
H  3.2517999999999994  -2.939  4.5436 
H  4.5078  -2.0462  4.116 
H  3.6377000000000006  -2.791  2.9984 
C  0.5467999999999993  -2.2747  4.215 
H  1.0484999999999998  -3.1053  4.4075 
H  -0.29800000000000004  -2.5315000000000003  3.7668999999999997 
C  0.21469999999999967  -1.5882  5.5314 
H  1.0448999999999993  -1.3244  5.981599999999999 
H  -0.28520000000000056  -2.2065  6.1053 
H  -0.32920000000000016  -0.7917000000000001  5.3561 
C  -1.5929000000000002  -0.9393000000000002  2.5479000000000003 
C  -1.8666000000000005  0.15349999999999975  3.3858999999999995 
C  -3.0437000000000003  0.129  4.1272 
H  -3.2487000000000004  0.8565  4.7031 
C  -3.9182000000000006  -0.9331  4.0385 
H  -4.7161  -0.9321000000000002  4.5531999999999995 
C  -3.6369000000000002  -2.002  3.2005 
H  -4.2483  -2.7269  3.1455 
C  -2.4738  -2.0286999999999997  2.4405 
C  -2.1615  -3.1997  1.5498999999999998 
H  -2.8679  -3.873  1.636 
H  -1.3024000000000004  -3.5906000000000002  1.8133000000000001 
H  -2.1108000000000002  -2.8978  0.6186999999999998 
C  -0.9446000000000003  1.3386  3.5035 
H  -0.9847999999999999  1.8668  2.6794000000000002 
H  -0.02770000000000028  1.0258999999999996  3.6472999999999995 
H  -1.2221000000000002  1.8942  4.2618 
C  2.9497  -0.9276  0.7670999999999999 
C  3.196299999999999  -2.2634  0.4240999999999999 
C  4.497399999999999  -2.6255  0.08970000000000011 
H  4.683299999999999  -3.5265  -0.14850000000000008 
C  5.5227  -1.7024000000000001  0.09640000000000004 
H  6.406599999999999  -1.9714  -0.12369999999999992 
C  5.263399999999999  -0.39159999999999995  0.42189999999999994 
H  5.9754000000000005  0.2368999999999999  0.4261999999999999 
C  3.9743999999999993  0.03160000000000007  0.7461 
C  3.700799999999999  1.4682999999999997  1.095 
H  4.523199999999999  1.9918999999999998  0.9926000000000001 
H  3.3908000000000005  1.5264000000000002  2.0223000000000004 
H  3.010299999999999  1.8240000000000003  0.49770000000000003 
C  2.0953999999999997  -3.2871  0.41999999999999993 
H  2.4434999999999993  -4.140000000000001  0.08390000000000009 
H  1.3670999999999998  -2.9802  -0.1594 
H  1.7589999999999995  -3.4075  1.3322 
N  1.3412999999999995  -1.4431  3.2893999999999997 
