42
unq_CSD-VUNBAJ-02-a
N  1.9809  -0.7756999999999987  -1.1029000000000004 
N  1.8689  1.3979999999999997  -0.5847000000000002 
N  4.0586  0.5003000000000011  -1.1779000000000002 
Si  4.6854  0.9435000000000002  -2.737 
Si  5.0427  0.1366000000000014  0.21939999999999937 
C  2.6247000000000007  0.39310000000000045  -0.9978000000000002 
C  2.6577  -1.947799999999999  -1.6492000000000004 
H  3.6244999999999994  -1.8780000000000001  -1.4421000000000004 
C  2.407400000000001  2.763300000000001  -0.45450000000000035 
H  3.3767999999999994  2.701600000000001  -0.2653000000000003 
C  2.112  -3.1945999999999994  -0.9858000000000002 
H  2.272500000000001  -3.149099999999999  -0.031200000000000117 
H  2.556000000000001  -3.9753999999999987  -1.3520000000000003 
H  1.1592000000000002  -3.2578999999999994  -1.1509000000000005 
C  2.4892000000000003  -2.059799999999999  -3.1651000000000002 
H  1.5466999999999995  -2.1426  -3.3782000000000005 
H  2.9651999999999994  -2.8407  -3.4863000000000004 
H  2.8484  -1.2642999999999986  -3.5884 
C  1.7255000000000003  3.4662000000000006  0.7252999999999998 
H  0.7664000000000009  3.4857000000000014  0.5781999999999998 
H  2.061  4.3736999999999995  0.7972999999999999 
H  1.9179999999999993  2.9825000000000017  1.5446999999999997 
C  2.2165  3.562000000000001  -1.7482000000000002 
H  2.5138999999999996  3.031200000000002  -2.5017000000000005 
H  2.7368000000000006  4.378600000000002  -1.7002000000000002 
H  1.2786000000000008  3.781200000000002  -1.8563 
C  5.7593  -0.33899999999999864  -3.4893 
H  6.353  -0.7009999999999987  -2.8139000000000003 
H  6.2829  0.05710000000000015  -4.2037 
H  5.2071000000000005  -1.0517000000000003  -3.8495000000000004 
C  5.6531  2.5458  -2.6908000000000003 
H  5.072699999999999  3.2666000000000004  -2.4026000000000005 
H  5.995699999999999  2.7406000000000006  -3.5794 
H  6.3934999999999995  2.4581  -2.0724000000000005 
C  6.649100000000001  0.1479999999999997  -0.14230000000000054 
H  7.118  0.7162000000000006  0.4880999999999993 
H  6.776  0.488900000000001  -1.0398000000000005 
H  6.998100000000001  -0.7561999999999998  -0.08520000000000039 
C  5.023  1.1675000000000004  1.4756999999999998 
H  4.9405  0.6675000000000004  2.3042 
H  4.269400000000001  1.7713999999999999  1.3857 
H  5.846500000000001  1.6789000000000005  1.4876999999999994 
