29
unq_CSD-VURTOU-02-b
N  -0.11549999999999994  -2.030000000000001  -0.5338999999999992 
N  1.6481000000000003  -0.9100999999999999  1.0482000000000014 
N  0.7888000000000002  -4.1279  -0.3879999999999981 
C  0.8764000000000003  -2.8367000000000004  -0.010600000000000165 
C  1.8372000000000002  -2.2324  0.8931000000000004 
C  -0.8826999999999998  -2.8656000000000006  -1.2781999999999982 
C  -0.3273999999999999  -4.1616  -1.1912999999999982 
C  -2.0327999999999995  -2.6213999999999995  -2.020599999999998 
H  -2.4123999999999994  -1.7739000000000011  -2.0714000000000006 
C  2.468400000000001  -0.22080000000000055  1.9438999999999993 
H  2.3501000000000003  0.6964000000000006  2.0454000000000008 
C  2.8477000000000006  -2.9338999999999995  1.6024999999999991 
C  -2.0352999999999994  -4.989  -2.608699999999999 
H  -2.4439999999999995  -5.686  -3.0676999999999985 
C  -0.9163999999999994  -5.2249  -1.879100000000001 
H  -0.5494999999999992  -6.079000000000001  -1.837299999999999 
C  3.4231000000000007  -0.8353999999999999  2.6655000000000015 
H  3.931400000000001  -0.3461999999999996  3.270400000000002 
C  -2.5770999999999997  -3.6997  -2.6751000000000005 
H  -3.3430999999999997  -3.5684000000000005  -3.1862999999999992 
C  3.6580000000000004  -2.213700000000001  2.5119000000000007 
C  3.0954000000000006  -4.3185  1.4451 
H  2.5924000000000005  -4.8147  0.8409000000000013 
C  4.635600000000001  -2.8781  3.256499999999999 
H  5.147800000000001  -2.4023000000000003  3.8705999999999996 
C  4.079400000000001  -4.926900000000001  2.1869000000000014 
H  4.236  -5.8371  2.078099999999999 
C  4.846800000000001  -4.2046  3.103300000000001 
H  5.5019  -4.6344  3.602599999999999 
