42
unq_CSD-PIVKOW-02-a
N  -1.5261000000000002  -0.8103000000000007  0.906600000000001 
N  0.2908999999999997  1.4188  1.3438999999999997 
C  -2.3084000000000002  -1.8287000000000004  0.19950000000000045 
H  -2.1355000000000004  -1.7399000000000004  -0.751199999999999 
H  -3.2491000000000003  -1.6430000000000007  0.3413000000000004 
C  -2.0422000000000002  -3.2685000000000004  0.5987000000000009 
C  -3.0313000000000003  -4.2204  0.3553999999999995 
H  -3.8564000000000003  -3.9494000000000002  0.02289999999999992 
C  -2.8018  -5.5626  0.6010000000000009 
H  -3.4677000000000002  -6.187600000000001  0.4260999999999999 
C  -1.5781  -5.9759  1.1090999999999998 
H  -1.4193000000000002  -6.8776  1.2703000000000007 
C  -0.5944000000000003  -5.0375000000000005  1.3742 
H  0.22289999999999965  -5.311  1.7246000000000006 
C  -0.8219000000000003  -3.6858000000000004  1.1187000000000005 
H  -0.1554000000000002  -3.0620000000000003  1.2965999999999998 
C  -1.8917000000000002  -0.49150000000000027  2.1463 
C  -1.2946000000000002  0.5217  2.9095999999999993 
H  -1.5562000000000002  0.5665999999999993  3.8017000000000003 
C  -0.3488000000000002  1.4804000000000004  2.4974000000000007 
C  -0.1514000000000002  2.6436  3.4596999999999998 
H  0.7787999999999999  2.8786999999999994  3.492000000000001 
H  -0.44650000000000034  2.3877999999999995  4.3363 
H  -0.6614  3.3981000000000003  3.1575000000000006 
C  1.1215999999999995  2.5455999999999994  0.8912999999999993 
H  0.8645999999999998  3.3348000000000004  1.3930000000000007 
H  0.9204999999999997  2.7163999999999993  -0.04279999999999973 
C  2.6202  2.3596999999999992  1.0295000000000005 
C  3.2373  2.013799999999999  2.2332 
H  2.7205999999999997  1.8815999999999997  2.9954 
C  4.616099999999999  1.8651999999999989  2.3026 
H  5.013199999999999  1.6206000000000005  3.1079000000000008 
C  5.405099999999999  2.0780000000000003  1.186 
H  6.3277  1.9806  1.2382000000000009 
C  4.8079  2.437599999999999  -0.006999999999999673 
H  5.3309999999999995  2.5948  -0.7599999999999998 
C  3.4279999999999995  2.5643000000000002  -0.08280000000000065 
H  3.036  2.7906000000000004  -0.8943999999999992 
C  -3.0702000000000003  -1.1925  2.786200000000001 
H  -3.8744  -0.9609000000000005  2.3162000000000003 
H  -3.1454  -0.9193000000000007  3.7037999999999993 
H  -2.9387000000000003  -2.1426000000000007  2.7455999999999996 
