25
unq_CSD-HEZDOF-02-a
N  -0.48360000000000003  -1.4835999999999991  -1.1796 
N  -1.6637  -0.09730000000000061  1.025 
C  0.36609999999999987  -2.0204000000000004  -2.2855 
C  -0.5878000000000001  -2.8432999999999993  -3.132 
C  -1.6905  -3.2268  -2.1705 
C  -1.6071  -2.1648999999999994  -1.106 
C  -2.6235  -1.9762000000000004  -0.14720000000000022 
C  -2.6071  -0.9969000000000001  0.8675999999999999 
C  -3.7024  -0.8613  1.9082999999999997 
C  -3.0893  0.08549999999999969  2.9351000000000003 
C  -1.9732  0.7904999999999998  2.165 
C  -3.7128  -2.8904999999999994  -0.15180000000000016 
N  -4.5729  -3.6485000000000003  -0.15370000000000017 
H  0.7454999999999998  -1.2978000000000005  -2.7916 
H  1.0728999999999997  -2.5631000000000004  -1.9267 
H  -0.1473  -3.622  -3.4760999999999997 
H  -0.9359999999999999  -2.3241999999999994  -3.8607 
H  -1.5372  -4.0969  -1.7942 
H  -2.5491  -3.2119999999999997  -2.6002 
H  -4.4955  -0.4778000000000002  1.5263999999999998 
H  -3.9122  -1.7106999999999992  2.3011999999999997 
H  -2.7292  -0.41000000000000014  3.6749 
H  -3.7381  0.7138000000000009  3.2571000000000003 
H  -1.1979000000000002  0.8995999999999995  2.7217000000000002 
H  -2.2693  1.6487999999999996  1.8586 
