23
unq_CSD-HIMJEU-02-a
N  -0.5852000000000004  -1.3994999999999997  1.5761000000000003 
N  -0.7067999999999994  0.7908999999999997  1.9337 
N  -1.3422  -0.6594999999999995  3.7485 
C  -0.900500000000001  -0.3990999999999998  2.4840999999999998 
C  -1.4497  -1.9447999999999999  4.0732 
H  -1.7596000000000007  -2.1533999999999995  4.945900000000002 
C  -1.1408000000000005  -3.0046  3.2277000000000005 
H  -1.2302  -3.9093  3.5039 
C  -0.6942000000000004  -2.6696999999999997  1.9587000000000003 
H  -0.4615000000000009  -3.3602  1.3504000000000005 
C  -0.7504000000000008  2.0279999999999996  2.7505000000000006 
C  -2.1370000000000005  2.2696999999999994  3.3618000000000006 
H  -2.8125999999999998  2.2694  2.6515000000000004 
H  -2.1462000000000003  3.1362999999999994  3.8202 
H  -2.339600000000001  1.5582000000000003  4.004100000000001 
C  0.3049999999999997  1.9660000000000002  3.862300000000001 
H  0.10229999999999961  1.2199  4.464700000000001 
H  0.29630000000000045  2.8059000000000003  4.368400000000001 
H  1.1907999999999994  1.8335999999999997  3.4644000000000013 
C  -0.40580000000000105  3.1983000000000006  1.8377 
H  0.5046999999999997  3.087600000000001  1.4947999999999997 
H  -0.4638000000000009  4.0363  2.3438 
H  -1.0371000000000006  3.2245  1.0874000000000006 
