42
unq_CSD-YUVBAT-02-a
N  -0.8711000000000002  1.6525999999999998  0.6682999999999999 
N  1.8026  0.903  0.18359999999999976 
C  -0.3268000000000004  2.5167  1.5776999999999999 
C  1.0795999999999992  2.556  1.8081999999999998 
C  1.6052  3.4778  2.7512999999999996 
H  2.5237  3.5084999999999997  2.8891 
C  0.8071000000000002  4.3122  3.4569 
H  1.1679999999999993  4.8772  4.1007 
C  -0.5549999999999997  4.3105  3.2051 
H  -1.1018000000000008  4.9087  3.6588 
C  -1.1109000000000009  3.4446  2.2975999999999996 
H  -2.029  3.4699999999999998  2.1525999999999996 
C  2.019  1.8388  1.0693 
H  2.9102999999999994  2.0531  1.2260999999999997 
C  -2.261700000000001  1.8546  0.36129999999999995 
C  -3.2455000000000007  1.2861  1.162 
H  -2.9994000000000005  0.7692  1.8960999999999997 
C  -4.570200000000001  1.4776  0.8863999999999999 
H  -5.2115  1.0972  1.4423 
C  -4.976400000000001  2.2263  -0.2041000000000004 
C  -3.9843  2.7702999999999998  -0.9928000000000003 
H  -4.231000000000001  3.2776  -1.7317000000000005 
C  -2.6402  2.5936  -0.7339000000000002 
H  -1.9992  2.9697  -1.2921999999999998 
C  2.975299999999999  0.3844  -0.4630000000000001 
C  3.1045999999999996  0.4194  -1.8172000000000001 
H  2.4193  0.7736000000000001  -2.3351 
C  4.2408  -0.06340000000000001  -2.4325000000000006 
H  4.3134999999999994  -0.014400000000000024  -3.3566 
C  5.2713  -0.6178999999999999  -1.6984 
C  5.1228  -0.6598999999999999  -0.33709999999999996 
H  5.799999999999999  -1.0307  0.18079999999999963 
C  3.9878  -0.16399999999999998  0.2876999999999996 
H  3.912799999999999  -0.20329999999999998  1.2141999999999997 
C  -6.4359  2.4432  -0.5105000000000004 
H  -6.5989  3.3799  -0.6436000000000002 
H  -6.9675  2.1257  0.2235999999999998 
H  -6.6699  1.9613  -1.3064000000000004 
C  6.551599999999999  -1.1287  -2.366 
H  6.473599999999999  -1.0386  -3.3186000000000004 
H  6.6823999999999995  -2.0523000000000002  -2.1403000000000003 
H  7.3012  -0.6144000000000001  -2.0571000000000006 
