27
unq_CSD-ZICMEF-02-a
N  -1.0148000000000001  2.1559000000000004  0.4177999999999997 
N  0.7378  1.5594000000000001  1.6760000000000002 
C  -0.16870000000000007  2.4894000000000003  1.3842999999999996 
C  -0.1723  3.8078999999999996  2.1499999999999995 
H  0.5488  3.802  2.8137999999999996 
H  -1.0341  3.9197  2.6038999999999994 
H  -0.034500000000000086  4.5495  1.5232 
C  -1.9853999999999998  3.0741  -0.19820000000000038 
C  -3.1572  3.437  0.7265999999999995 
H  -3.5643999999999996  2.6149999999999998  1.0755 
H  -3.8267  3.9431999999999996  0.22169999999999934 
H  -2.8295  3.9804999999999997  1.4722999999999997 
C  -1.3317  4.325799999999999  -0.7601000000000004 
H  -0.9507  4.8536  -0.025300000000000544 
H  -2.0033  4.8614999999999995  -1.2310000000000003 
H  -0.6198  4.072699999999999  -1.3839000000000001 
C  -2.5642  2.2853999999999997  -1.3823000000000003 
H  -2.9882  1.4651999999999998  -1.0519000000000003 
H  -1.8439  2.0519  -2.0045 
H  -3.2314  2.8328  -1.8455000000000004 
C  1.7119999999999997  1.8026999999999997  2.7227999999999994 
H  2.1892  2.6483000000000003  2.5313 
H  1.2414999999999998  1.9066999999999998  3.5873 
C  2.6626  0.7431999999999999  2.8308 
H  3.2969  0.9453  3.5503 
H  3.1461  0.649  1.9848 
H  2.1957  -0.09460000000000002  3.0345999999999993 
