22
unq_CSD-POFHUO-02-a
N  -1.2882000000000016  -0.7252999999999998  -1.6532000000000004 
N  -1.8524000000000012  -0.9716  0.4285999999999994 
N  -3.538400000000001  -1.3422999999999998  -1.1623000000000006 
C  -1.5534  -0.6846999999999999  -3.0554000000000006 
H  -0.7700000000000014  -1.0189  -3.5381 
H  -1.6982  0.24619999999999997  -3.3247000000000004 
C  -2.729300000000001  -1.4817  -3.4401 
H  -2.983600000000001  -1.2353999999999998  -4.3533 
H  -2.469500000000001  -2.4275  -3.4520000000000004 
C  -3.899700000000001  -1.3382999999999998  -2.5838 
H  -4.522100000000001  -2.0744  -2.7614 
H  -4.355700000000001  -0.4980000000000002  -2.7981000000000003 
C  -4.551900000000001  -1.5791  -0.15850000000000009 
H  -5.114800000000001  -2.3314000000000004  -0.4369000000000005 
H  -5.124200000000001  -0.7862  -0.08330000000000037 
C  -3.951100000000001  -1.8795  1.1713999999999993 
H  -3.612800000000001  -2.7996  1.1713999999999993 
H  -4.645200000000001  -1.8146  1.8610999999999995 
C  -2.833400000000001  -0.9445000000000001  1.5093999999999994 
H  -3.1812000000000005  -0.03520000000000012  1.6229999999999993 
H  -2.4113000000000007  -1.2191999999999998  2.3502 
C  -2.2936000000000005  -1.0352000000000001  -0.8216000000000006 
