52
unq_CSD-DOBXIC-02-a
N  0.3906999999999998  1.8114999999999997  -1.6207999999999991 
N  -1.5172000000000008  -0.01639999999999997  -1.4611 
C  -0.3462000000000005  1.7237  -2.7094999999999994 
C  -0.09220000000000006  2.4978  -3.8626999999999994 
H  -0.6535000000000002  2.4182999999999995  -4.624599999999999 
C  0.9617999999999993  3.3569999999999993  -3.8766999999999996 
H  1.1492999999999993  3.8682  -4.654999999999999 
C  1.7713999999999999  3.4875999999999996  -2.7360999999999995 
C  1.4522999999999993  2.7082999999999995  -1.6073999999999993 
C  -1.4907000000000004  0.7359  -2.7059999999999995 
H  -2.3434000000000004  1.2538  -2.7687999999999997 
C  -1.3938000000000006  -0.17530000000000046  -3.9631999999999996 
H  -0.5761000000000003  -0.7149000000000005  -3.9140999999999995 
H  -1.3679000000000006  0.3816999999999995  -4.770499999999999 
H  -2.1748000000000003  -0.7671000000000006  -3.9993 
C  -2.7431000000000005  -0.7487000000000004  -1.2607999999999997 
C  -3.8508000000000004  -0.09590000000000032  -0.6950000000000003 
C  -5.016  -0.8272000000000004  -0.4681999999999995 
H  -5.7692000000000005  -0.3894000000000002  -0.08840000000000003 
C  -5.1081  -2.1633000000000004  -0.7786999999999988 
H  -5.9081  -2.6453000000000007  -0.6039999999999992 
C  -4.0307  -2.7901000000000007  -1.3419999999999987 
H  -4.0943000000000005  -3.7123000000000004  -1.5643999999999991 
C  -2.8397000000000006  -2.1085000000000003  -1.5981999999999994 
C  -3.8264000000000005  1.3816999999999995  -0.3425999999999991 
H  -2.9215000000000004  1.7341999999999995  -0.5808999999999997 
C  -4.8684  2.1675999999999993  -1.1715999999999998 
H  -5.769500000000001  1.9604999999999997  -0.8452000000000002 
H  -4.7953  1.9135  -2.1145999999999994 
H  -4.7010000000000005  3.1285  -1.0791000000000004 
C  -4.0166  1.5793  1.1507000000000005 
H  -4.9141  1.2833999999999994  1.4078 
H  -3.9106000000000005  2.5279  1.3717000000000006 
H  -3.3484000000000003  1.0535999999999994  1.6387999999999998 
C  -1.6927000000000003  -2.9081  -2.1983999999999995 
H  -0.9193000000000007  -2.2885000000000004  -2.3385 
C  -2.0699000000000005  -3.5104000000000006  -3.553 
H  -2.8628000000000005  -4.0779000000000005  -3.4475999999999996 
H  -1.3232000000000008  -4.0483  -3.890999999999999 
H  -2.2661000000000002  -2.7898000000000005  -4.186999999999999 
C  -1.2382000000000009  -4.037800000000001  -1.2364999999999995 
H  -0.9994000000000005  -3.6497  -0.36859999999999893 
H  -0.46030000000000015  -4.4956000000000005  -1.6148999999999996 
H  -1.9696000000000002  -4.678400000000001  -1.1166999999999998 
C  2.2327999999999992  2.8295999999999992  -0.44510000000000005 
H  2.013299999999999  2.3225  0.3290000000000006 
C  3.3066000000000004  3.676799999999999  -0.4234999999999989 
H  3.8336999999999994  3.7481  0.3635999999999999 
C  3.638099999999999  4.4399  -1.5498999999999992 
H  4.393  5.017099999999999  -1.5267999999999997 
C  2.8878999999999992  4.3584  -2.6734999999999998 
H  3.1111999999999993  4.889999999999999  -3.4273999999999996 
