35
unq_CSD-DODJOW-02-a
N  1.1119  -0.37529999999999997  -1.5160999999999998 
N  -1.4319  -0.8907  -0.7962999999999987 
N  1.0328  -1.3418999999999999  -2.3987999999999996 
N  -2.2051  -2.6793  -2.2182999999999993 
C  2.2648  0.4361999999999999  -1.7670999999999992 
N  -1.6551  -3.4446  -3.2841999999999985 
C  2.158  1.8102  -1.6231999999999989 
C  -1.2801  -1.8223  -1.6987999999999985 
C  4.478199999999999  2.0682  -2.0962999999999994 
C  3.2681  2.6217  -1.7744 
C  -0.07409999999999994  -2.0871  -2.4133999999999993 
C  -3.6161  -2.6159  -2.098799999999999 
C  3.4797999999999996  -0.09029999999999994  -2.1255999999999986 
C  -4.209099999999999  -2.378  -0.8816999999999986 
C  0.4912000000000001  -3.6579  -4.406099999999999 
C  -5.7516  -2.7173  -3.1377999999999986 
C  -4.3881  -2.7979000000000003  -3.2231999999999985 
C  4.5793  0.7203999999999999  -2.2866 
C  -0.4086  -3.0888  -3.3743999999999996 
C  -6.346299999999999  -2.4406  -1.927999999999999 
C  -5.5923  -2.2698  -0.8084999999999987 
H  1.2957  2.1807  -1.4242999999999988 
H  5.2486  2.6321  -2.2005 
H  3.2053  3.5702999999999996  -1.6425999999999998 
H  3.5488000000000004  -1.0371  -2.2681999999999984 
H  -3.6529  -2.2866  -0.10440000000000005 
H  1.3742  -3.2929  -4.3126 
H  0.1422000000000001  -3.4361  -5.2714 
H  0.528  -4.6125  -4.309699999999999 
H  -6.2933  -2.843  -3.9197999999999986 
H  -3.9365  -2.968  -4.0542 
H  5.4201999999999995  0.32319999999999993  -2.527199999999999 
H  -7.3016000000000005  -2.3893  -1.8427999999999987 
H  -6.025499999999999  -2.056  0.02059999999999995 
H  -2.3331  -0.6707  -0.546899999999999 
