40
unq_CSD-KITJAB-02-a
N  0.7936999999999994  -1.1356000000000002  1.5194999999999999 
N  1.8011999999999997  0.7096999999999998  -0.1261000000000001 
C  2.6754  0.14939999999999998  0.7661999999999995 
C  2.1295  -0.8178000000000001  1.6864 
C  4.274099999999999  -1.056  2.7798 
H  4.8179  -1.4533999999999998  3.45 
C  4.025499999999999  0.4723000000000006  0.9252000000000002 
H  4.417299999999999  1.1150000000000002  0.34529999999999994 
C  2.922699999999999  -1.4177  2.6723999999999997 
C  0.9336000000000002  -2.7401999999999997  3.2878999999999996 
C  0.20949999999999935  -2.0486  2.2625 
C  4.8179  -0.12159999999999993  1.9115000000000002 
C  2.2866  -2.4118999999999997  3.5141 
C  2.2588  1.4146  -1.2549000000000001 
C  -1.2367  -2.3465  1.9806 
H  -1.6065000000000005  -1.6513  1.3979999999999997 
H  -1.7369000000000003  -2.3659999999999997  2.8232999999999997 
H  -1.3098999999999998  -3.2161  1.5363999999999995 
C  2.9787999999999997  -3.074  4.5476 
H  3.8851999999999993  -2.8527  4.723299999999999 
C  3.2988  0.9798999999999998  -2.0691 
H  3.790799999999999  0.20230000000000015  -1.8284000000000002 
C  6.273199999999999  0.25700000000000056  2.0140000000000002 
H  6.6607  -0.1509999999999998  2.8156999999999996 
H  6.354099999999999  1.2321  2.0718999999999994 
H  6.7515  -0.06219999999999981  1.2199999999999998 
C  0.3229999999999995  -3.7465  4.0786999999999995 
H  -0.5844000000000005  -3.9814  3.9231 
C  1.0268999999999995  -4.3809  5.0614 
H  0.6090999999999998  -5.0576  5.5812 
C  2.3513  -4.0403  5.3051 
H  2.829699999999999  -4.4780999999999995  5.9995 
C  1.5581999999999994  2.5635000000000003  -1.6264000000000003 
H  0.8502999999999998  2.8857  -1.08 
C  3.6258999999999997  1.6692  -3.2293000000000003 
H  4.3332  1.3571999999999997  -3.7801 
C  2.9298  2.7988999999999997  -3.5826000000000002 
H  3.1648999999999994  3.2753999999999994  -4.3703 
C  1.8978000000000002  3.2393  -2.7989 
H  1.4077000000000002  4.0123999999999995  -3.056 
