56
unq_CSD-POPYUO-02-a
N  -0.23520000000000002  1.5884999999999998  -1.4108999999999998 
N  -1.1111  -1.1509  -1.4903 
Si  1.0621  2.2436999999999996  -2.4273 
Si  -0.9054  -2.5893  -2.5452 
C  -1.4957  1.8536000000000001  -1.0459 
C  -2.3159  0.7644000000000002  -0.6936 
C  -2.2643000000000004  -0.5753000000000004  -1.1587 
C  -2.0359  3.303  -0.8915999999999995 
C  -3.4913  3.3381999999999996  -0.44949999999999957 
C  -1.1882  3.9946  0.15610000000000035 
C  -1.9402000000000001  4.019399999999999  -2.2318 
C  -3.5412  -1.3393000000000002  -1.1126999999999998 
C  -4.6716999999999995  -0.8713000000000002  -1.754 
C  -5.8461  -1.6106000000000003  -1.7079 
C  -5.870699999999999  -2.7949  -1.001 
C  -4.7717  -3.2567000000000004  -0.32979999999999965 
C  -3.6012000000000004  -2.5278  -0.3780999999999999 
C  0.4871  2.2676999999999996  -4.1822 
C  1.7741  3.8745000000000003  -1.9024999999999999 
C  2.4229000000000003  0.9943  -2.2951 
C  -2.3467000000000002  -2.8053  -3.6572 
C  0.5583  -2.2152000000000003  -3.5949999999999998 
C  -0.6112  -4.1284  -1.5547999999999997 
H  -3.0094000000000003  0.9672999999999998  -0.047699999999999854 
H  -3.8030999999999997  4.238899999999999  -0.35850000000000026 
H  -4.0531  2.893  -1.0838999999999999 
H  -3.6029999999999998  2.893  0.4013 
H  -1.4591  4.9015  0.29769999999999985 
H  -1.2267  3.5348999999999995  1.0000999999999998 
H  -0.2615  4.011099999999999  -0.11679999999999957 
H  -2.2659000000000002  4.9015  -2.1662 
H  -1.0352  4.0525  -2.5231 
H  -2.4505999999999997  3.5556  -2.8914999999999997 
H  -4.6619  -0.026499999999999968  -2.2353 
H  -6.6381  -1.2896  -2.1547 
H  -6.6983  -3.2981000000000003  -0.9802999999999997 
H  -4.812399999999999  -4.0849  0.1596000000000002 
H  -2.8056  -2.8219000000000003  0.09050000000000047 
H  1.1677  2.6030999999999995  -4.7567 
H  0.2764  1.3815  -4.4689 
H  -0.29309999999999997  2.8102  -4.2730999999999995 
H  2.4610000000000003  4.1561  -2.5116 
H  1.0863  4.5495  -1.9013999999999998 
H  2.1374  3.8247999999999998  -1.0263 
H  3.1799999999999997  1.2572  -2.8108999999999997 
H  2.7034000000000002  0.8845000000000001  -1.3832999999999998 
H  2.1289  0.1391  -2.6037 
H  -2.2432999999999996  -3.5673000000000004  -4.2156 
H  -3.1566  -2.9254000000000002  -3.1448 
H  -2.4612999999999996  -2.035  -4.2156 
H  0.7671  -2.9461000000000004  -4.1695 
H  0.4364  -1.4138000000000002  -4.0889 
H  1.3431  -2.0764000000000005  -3.0182 
H  -0.4937  -4.871700000000001  -2.1431 
H  0.1887  -4.0228  -1.0377999999999998 
H  -1.3474  -4.292  -0.9802999999999997 
