89
unq_CSD-KUGPIO-02-a
N  -0.7395000000000005  -1.3369999999999997  -1.3054999999999994 
N  -2.0361000000000002  0.00649999999999995  -0.08840000000000003 
N  -3.1165000000000003  -1.7633999999999994  -1.2006999999999994 
C  -1.987  -1.0308999999999995  -0.9518999999999993 
C  -3.2187  0.2118000000000002  0.6593 
C  -2.4369000000000005  -1.5143999999999997  2.3629000000000016 
H  -1.7819000000000003  -1.7320999999999995  1.6389000000000014 
C  0.3622999999999994  -2.0197  -3.371999999999999 
C  -4.120000000000001  1.2286000000000001  0.28550000000000075 
C  -3.7913  2.2321  -0.7907999999999991 
H  -3.0440000000000005  1.8556000000000008  -1.3360999999999992 
C  -2.9874  -0.12709999999999955  -3.581599999999999 
H  -2.0859000000000005  -0.34969999999999946  -3.272099999999999 
H  -3.3752000000000004  0.5575000000000001  -2.9967999999999995 
H  -2.9436  0.21530000000000005  -4.4994 
C  -0.4645999999999999  -3.7289999999999996  -1.8279999999999994 
C  -0.32480000000000064  -2.3707999999999996  -2.176799999999999 
C  -3.9842000000000004  -1.9419999999999997  -2.1095999999999995 
C  0.8739999999999997  -3.0182999999999995  -4.1823 
H  1.3383000000000003  -2.7868999999999997  -4.9772 
C  -3.4808000000000003  -0.5947999999999998  1.7810000000000006 
C  -4.706200000000001  -0.44899999999999984  2.4380000000000006 
H  -4.9092  -1.0092999999999996  3.1784 
C  0.6006999999999998  -0.5692999999999997  -3.7567999999999993 
H  -0.009700000000000486  0.002200000000000202  -3.208099999999999 
C  -3.8626000000000005  -1.3770999999999995  -3.5471999999999992 
C  0.046299999999999564  -4.6887  -2.6914999999999996 
H  -0.0680000000000005  -5.6075  -2.477999999999999 
C  0.7155999999999993  -4.3546  -3.8428999999999993 
H  1.0652999999999988  -5.0348999999999995  -4.405299999999999 
C  -1.0745000000000005  -4.1480999999999995  -0.4966999999999997 
H  -1.7536000000000005  -3.4604999999999997  -0.2408999999999999 
C  -5.1973  -2.8129999999999997  -1.655899999999999 
C  -5.3359000000000005  1.338  0.9863 
H  -5.965400000000001  2.0036000000000005  0.7311000000000014 
C  -4.9042  -3.4713999999999996  -0.32459999999999933 
H  -4.7796  -2.7817  0.3608000000000011 
H  -4.0867  -4.0081999999999995  -0.39869999999999894 
H  -5.6532  -4.0501  -0.07399999999999984 
C  -1.6884000000000006  -0.7781999999999996  3.4689000000000014 
H  -2.3182  -0.5148999999999999  4.1707 
H  -1.2597000000000005  0.02120000000000033  3.0968 
H  -1.0036000000000005  -1.3684999999999996  3.847900000000001 
C  -5.6290000000000004  0.5010000000000003  2.0266 
H  -6.4653  0.5699000000000005  2.4697000000000013 
C  -5.193300000000001  -0.9846999999999997  -4.208899999999999 
H  -5.0259  -0.6740999999999997  -5.122999999999999 
H  -5.6157  -0.2670999999999992  -3.692099999999999 
H  -5.7884  -1.7633999999999994  -4.232499999999999 
C  -3.1894000000000005  -2.4570999999999996  -4.404499999999999 
H  -2.3657000000000004  -2.7573  -3.9644999999999992 
H  -2.9715000000000007  -2.0870999999999995  -5.285399999999999 
H  -3.7982000000000005  -3.2169  -4.5100999999999996 
C  -4.967600000000001  2.4823000000000004  -1.7293999999999992 
H  -5.697  2.912000000000001  -1.2346999999999992 
H  -5.2815  1.6292  -2.0965999999999996 
H  -4.682600000000001  3.0674  -2.4625999999999992 
C  2.0542  -0.1440999999999999  -3.4564999999999992 
H  2.6731999999999996  -0.7304999999999997  -3.9399999999999995 
H  2.2235999999999994  -0.2153999999999998  -2.493099999999999 
H  2.190299999999999  0.7826000000000004  -3.7436999999999996 
C  -0.009200000000000763  -4.169899999999999  0.5858000000000008 
H  0.40109999999999957  -3.2826999999999997  0.6585000000000001 
H  0.6793999999999993  -4.828799999999999  0.35330000000000084 
H  -0.41690000000000005  -4.4129  1.442400000000001 
C  -6.4012  -1.8909999999999996  -1.4430999999999994 
H  -6.6766000000000005  -1.5099999999999998  -2.3020999999999994 
H  -6.155200000000001  -1.1685999999999996  -0.8280999999999992 
H  -7.1429  -2.4060999999999995  -1.0608999999999993 
C  -5.5537  -3.9463999999999997  -2.6445999999999996 
H  -4.7759  -4.529599999999999  -2.7685999999999993 
H  -5.8125  -3.5590999999999995  -3.506499999999999 
H  -6.3003  -4.470899999999999  -2.285099999999999 
C  -3.3121000000000005  3.5355  -0.18849999999999945 
H  -2.5404  3.3619000000000003  0.3927000000000014 
H  -4.0322000000000005  3.9387  0.33840000000000003 
H  -3.0472  4.1491999999999996  -0.9050999999999991 
C  -1.7795000000000005  -5.5062  -0.537399999999999 
H  -1.1168000000000005  -6.2126  -0.6893999999999991 
H  -2.4355  -5.511299999999999  -1.2640999999999991 
H  -2.2341000000000006  -5.663399999999999  0.31620000000000026 
C  0.27999999999999936  -0.3262999999999998  -5.236699999999999 
H  -0.6156000000000006  -0.6672999999999996  -5.436999999999999 
H  0.9395999999999995  -0.7908999999999997  -5.7936 
H  0.31429999999999936  0.6351000000000004  -5.4239999999999995 
C  -2.9755000000000003  -2.8214999999999995  2.9136000000000006 
H  -3.4760000000000004  -3.2894999999999994  2.2125000000000004 
H  -3.5703000000000005  -2.6361  3.670300000000001 
H  -2.2303000000000006  -3.3816999999999995  3.2128000000000014 
