14
unq_CSD-LACQOW-02-a
N  0.13870000000000005  -1.0174999999999998  1.7628 
N  0.36460000000000026  -1.5949  -1.1875 
C  -0.05790000000000006  -2.4564  1.8180999999999998 
C  0.4630000000000001  -3.2831  0.6840999999999999 
C  0.12050000000000027  -2.8926999999999996  -0.6803999999999999 
H  -0.13709999999999978  -0.7726  2.2422 
H  0.9856000000000003  -1.0289  2.0579000000000005 
H  0.06820000000000004  -2.6783  2.9798000000000004 
H  -1.0249  -2.613  1.5047000000000001 
H  1.2702  -2.9575  0.8869000000000002 
H  0.5796000000000001  -4.0591  0.8961999999999999 
H  0.5885000000000002  -3.8127999999999997  -0.8923999999999999 
H  -0.9663999999999999  -2.6497  -0.5236999999999998 
H  0.10650000000000004  -1.4091  -2.3667 
