54
unq_CSD-LAKYIG-02-a
N  -2.1479999999999997  -0.3102000000000005  0.34529999999999994 
N  -1.4910999999999999  1.0732999999999997  -1.2309 
N  -3.8215  0.9841999999999995  -0.7809000000000008 
H  -3.8616  1.4992999999999999  -1.3163999999999998 
C  -2.5086  0.5885999999999996  -0.5891000000000002 
C  -2.8785  -1.4274000000000004  0.7591999999999999 
C  -2.5191999999999997  -2.0241000000000002  1.9536999999999995 
H  -1.8302999999999998  -1.6448000000000005  2.468399999999999 
C  -3.157  -3.1782000000000004  2.4094999999999995 
H  -2.8912999999999998  -3.5771  3.218499999999999 
C  -4.1806  -3.7293000000000003  1.6707999999999998 
H  -4.6068  -4.5107  1.9707999999999988 
C  -4.5739  -3.1467  0.5085999999999995 
H  -5.2779  -3.5271000000000003  0.014799999999999258 
C  -3.9507  -2.0002000000000004  0.03759999999999941 
H  -4.2423  -1.6024000000000003  -0.7637999999999998 
C  -1.5939999999999999  2.3046999999999995  -2.0418000000000003 
H  -0.6871999999999998  2.6578999999999997  -2.1786000000000003 
H  -2.0894999999999997  2.9719999999999995  -1.5252999999999997 
C  -2.2616  2.1578999999999997  -3.4072000000000005 
H  -3.2085  1.9264999999999999  -3.2876000000000003 
H  -1.8322999999999998  1.4319999999999995  -3.9067000000000007 
C  -2.1536999999999997  3.4609999999999994  -4.2010000000000005 
H  -2.6692  4.153299999999999  -3.7415000000000003 
H  -1.2165  3.7467999999999995  -4.2048000000000005 
C  -2.6207  3.3664999999999994  -5.5949 
H  -3.5465999999999998  3.0447999999999995  -5.5873 
H  -2.0810999999999997  2.6948  -6.0583 
C  -2.5683  4.6293  -6.375400000000001 
H  -1.6407999999999998  4.944500000000001  -6.4039 
H  -3.101  5.308599999999999  -5.9083000000000006 
C  -3.0818  4.5011  -7.7826 
H  -2.9684999999999997  3.5870999999999995  -8.086400000000001 
H  -2.5856999999999997  5.0988  -8.3618 
H  -4.022399999999999  4.734699999999999  -7.8073 
C  -4.7925  1.0472000000000001  0.3091999999999988 
H  -4.332599999999999  0.9081000000000001  1.1637000000000004 
H  -5.455  0.3353999999999999  0.19899999999999984 
C  -5.484299999999999  2.3915999999999995  0.31869999999999976 
H  -5.8693  2.5503  -0.5701 
H  -4.816599999999999  3.0871999999999993  0.4801000000000002 
C  -6.596  2.5404999999999998  1.3536000000000001 
H  -6.2386  2.3362  2.244299999999999 
H  -7.3095  1.896  1.1599000000000004 
C  -7.1777  3.9543999999999997  1.3554999999999993 
H  -6.485099999999999  4.5902  1.6347000000000005 
H  -7.454599999999999  4.191299999999999  0.44589999999999996 
C  -8.3725  4.0718000000000005  2.2918000000000003 
H  -8.1164  3.7718  3.1899999999999995 
H  -9.0981  3.4969  1.9726999999999997 
C  -8.8553  5.5302999999999995  2.352499999999999 
H  -8.1408  6.095400000000001  2.684899999999999 
H  -9.6206  5.5933  2.9468999999999994 
H  -9.111699999999999  5.8226  1.463799999999999 
