80
unq_CSD-EGIBUU-02-a
N  0.10250000000000004  -0.5602999999999998  -2.0101999999999993 
N  -0.3516999999999999  -2.0172000000000008  0.3855000000000004 
C  2.5479000000000003  -1.4487000000000005  1.2104999999999997 
H  2.1054  -1.7659000000000002  0.44120000000000026 
N  2.9674000000000005  0.2215999999999987  -1.2569999999999997 
H  2.4026  -0.4029000000000007  -1.0012999999999996 
C  1.9735  -1.9343000000000004  2.4064999999999994 
C  2.9642  -1.7067000000000005  3.4756 
C  2.9541000000000004  -2.0092000000000008  4.8119 
H  2.1942  -2.4239000000000006  5.203200000000001 
C  4.0926  -1.6966  5.6103000000000005 
C  4.1399  -1.9966000000000008  6.9937000000000005 
H  3.3885000000000005  -2.4014000000000006  7.4108 
C  5.2582  -1.7097000000000007  7.742300000000002 
H  5.2649  -1.8963  8.673700000000002 
C  6.3905  -1.1418  7.133999999999999 
H  7.1687  -0.969100000000001  7.6507999999999985 
C  6.3763000000000005  -0.8369  5.8004999999999995 
H  7.1498  -0.45640000000000036  5.401200000000001 
C  5.2266  -1.0785  5.0015 
C  5.1958  -0.7388000000000012  3.620800000000001 
H  5.9348  -0.2954000000000008  3.2211 
C  4.0951  -1.0549  2.8712 
C  3.7908999999999997  -0.8485000000000014  1.4418000000000006 
C  4.5777  -0.06109999999999971  0.5801999999999996 
H  5.472  0.11139999999999972  0.8499999999999996 
C  4.1661  0.4880999999999993  -0.6303999999999998 
C  4.7824  1.549999999999999  -1.3911999999999995 
C  6.1129  2.163599999999999  -1.0755999999999997 
H  6.5963  1.5891000000000002  -0.4458000000000002 
H  5.9781  3.0473999999999997  -0.6744000000000003 
H  6.6342  2.2552000000000003  -1.9003999999999994 
C  3.9212  1.9161000000000001  -2.4010999999999996 
C  4.08  3.0447999999999986  -3.3785 
H  4.7866  3.653699999999999  -3.0465999999999998 
H  3.2338000000000005  3.557599999999999  -3.4098999999999995 
C  4.4379  2.609499999999999  -4.7927 
H  5.32  2.182599999999999  -4.7897 
H  4.4562  3.3932  -5.3808 
H  3.7678000000000003  1.9726  -5.1178 
C  2.7668999999999997  1.0518  -2.3274999999999997 
C  1.6669  0.9985999999999997  -3.1735999999999995 
H  1.6777000000000002  1.6125999999999987  -3.8984999999999994 
C  0.5378000000000001  0.15990000000000038  -3.1051 
C  -0.30709999999999993  -0.1280000000000001  -4.241 
C  -0.13959999999999995  0.472999999999999  -5.6076 
H  -0.5304999999999999  -0.1374000000000013  -6.282 
H  0.8256999999999999  0.5673999999999992  -5.805899999999999 
C  -0.8057999999999998  1.8286999999999995  -5.7169 
H  -0.4857999999999999  2.408999999999999  -4.9948999999999995 
H  -1.7772  1.722199999999999  -5.6442 
H  -0.5851999999999999  2.2322999999999986  -6.5823 
C  -1.2497999999999998  -1.0340000000000007  -3.8258 
C  -2.3471  -1.6627  -4.6379 
H  -2.5654  -1.0668000000000006  -5.3978 
H  -3.1574  -1.7425000000000006  -4.0748999999999995 
C  -1.9864  -3.0337000000000005  -5.1768 
H  -1.8163999999999998  -3.644100000000001  -4.4293 
H  -1.1819  -2.9652000000000003  -5.7321 
H  -2.7281  -3.377700000000001  -5.7172 
C  -0.9803  -1.3123000000000005  -2.4375 
C  -1.6873  -2.2155000000000005  -1.6431999999999993 
H  -2.4633  -2.6072000000000006  -2.0264999999999995 
C  -1.3661999999999999  -2.5993000000000004  -0.3412000000000006 
C  -1.9644  -3.6703  0.41629999999999967 
C  -3.0742  -4.558300000000001  -0.06199999999999939 
H  -3.6765  -4.0360000000000005  -0.6488999999999994 
H  -3.6018  -4.8653  0.7173999999999996 
C  -2.5701  -5.758000000000001  -0.8177000000000003 
H  -3.3224  -6.348000000000001  -1.0332 
H  -1.9222  -6.2434  -0.26529999999999987 
H  -2.1376  -5.464  -1.6463 
C  -1.2726  -3.740900000000001  1.6029 
C  -1.4425999999999999  -4.7305  2.7172 
H  -1.6454  -4.2540000000000004  3.549200000000001 
H  -0.6146999999999999  -5.2431  2.8278 
H  -2.1786  -5.3409  2.502600000000001 
C  -0.25659999999999994  -2.7154000000000007  1.5698000000000008 
C  0.7352000000000003  -2.5542000000000007  2.5576000000000008 
H  0.5385000000000002  -2.9057000000000004  3.4178999999999995 
