99
unq_CSD-ETIDAN-02-a
N  0.23710000000000075  2.1835  -0.3235000000000001 
N  -1.2155999999999998  1.0324  -1.3922999999999996 
N  -0.6492999999999998  2.2087  -1.2950999999999997 
C  1.088  3.319  -0.33830000000000027 
C  1.7016  3.7755  0.8440000000000003 
C  2.6812000000000005  4.7679  0.7428999999999997 
H  3.1148000000000007  5.0616  1.5345000000000004 
C  3.0439000000000007  5.340999999999999  -0.4668000000000001 
H  3.7346000000000004  5.9907  -0.5095999999999998 
C  2.3717000000000006  4.9404  -1.6162999999999998 
H  2.5711000000000004  5.3566  -2.4472 
C  1.4206000000000003  3.9507  -1.5602 
H  0.9773000000000005  3.6852  -2.3579 
C  1.3142000000000005  3.3421  2.2365000000000004 
C  2.2503  2.6822  3.060199999999999 
C  1.9332000000000003  2.5054  4.417000000000001 
H  2.5695000000000006  2.0806  4.9799999999999995 
C  0.7347000000000001  2.9219  4.9707 
C  -0.1889999999999996  3.5342000000000002  4.1217999999999995 
H  -1.0246999999999997  3.8062  4.4799 
C  0.06540000000000035  3.762  2.7702999999999998 
C  -2.2326999999999995  0.8925999999999998  -2.3702 
C  -2.4833999999999996  1.7642  -3.4581 
C  -3.4887999999999995  1.3957  -4.3525 
H  -3.6477999999999997  1.9553  -5.1036 
C  -4.2642  0.2631000000000001  -4.2078 
H  -4.9479  0.06349999999999989  -4.8355 
C  -4.0301  -0.5800999999999998  -3.1268 
H  -4.555  -1.3616000000000001  -3.0025 
C  -3.0157  -0.26239999999999997  -2.2335 
H  -2.8477999999999994  -0.8465000000000003  -1.5040999999999998 
C  -1.7864999999999998  3.0665  -3.7382 
C  -0.7197999999999998  3.1276  -4.6541 
C  -0.15609999999999946  4.3612  -4.9591 
H  0.5714000000000006  4.3934999999999995  -5.5695 
C  -0.6157999999999997  5.5488  -4.4043 
C  -1.6848999999999998  5.4678  -3.4984 
H  -2.0227999999999997  6.2672  -3.1128 
C  -2.2638999999999996  4.2526  -3.1481 
C  3.5635000000000003  2.1367  2.5202 
H  3.692  2.517  1.6048 
C  3.4776000000000007  0.6101999999999999  2.3800999999999997 
H  2.7114000000000003  0.37539999999999996  1.814 
H  3.3643  0.2056  3.2666999999999993 
H  4.301800000000001  0.2721999999999998  1.9699 
C  4.770600000000001  2.5461  3.3625999999999996 
H  4.785700000000001  3.5219  3.4607 
H  5.5939000000000005  2.2507  2.9188 
H  4.708800000000001  2.1301  4.2479000000000005 
C  0.43840000000000057  2.7461  6.460299999999999 
H  1.2104  2.2602  6.8701 
C  -0.8153999999999995  1.9077  6.6955 
H  -0.7151999999999998  1.039  6.2540000000000004 
H  -1.5937999999999999  2.3733  6.326199999999999 
H  -0.9420999999999995  1.7709  7.6573 
C  0.3119000000000005  4.1029  7.1688 
H  0.20030000000000037  3.9609  8.1327 
H  -0.46759999999999957  4.5843  6.818700000000001 
H  1.1201000000000008  4.6328  7.0089 
C  -0.9485999999999999  4.5312  1.9123 
H  -0.9849999999999999  4.0853  1.0172999999999996 
C  -2.3645999999999994  4.5065  2.4997 
H  -2.6247999999999996  3.5803  2.6868000000000007 
H  -2.9913  4.8976  1.8558000000000003 
H  -2.3827999999999996  5.0253  3.3313999999999995 
C  -0.5045999999999995  5.9854  1.686 
H  -1.2106999999999997  6.4726  1.2130999999999998 
H  0.3155999999999999  5.9973  1.1504000000000003 
H  -0.33589999999999964  6.4140999999999995  2.5518 
C  -0.11249999999999982  1.8517  -5.2600999999999996 
H  -0.7521999999999998  1.1020999999999999  -5.0941 
C  1.1898  1.5012999999999999  -4.5902 
H  1.5212000000000003  0.6501999999999999  -4.9477 
H  1.0476  1.4159  -3.6243 
H  1.8462000000000005  2.2077  -4.7633 
C  0.07110000000000039  1.9832  -6.7766 
H  0.3536999999999999  1.1200999999999999  -7.1477 
H  0.7545999999999999  2.659  -6.9652 
H  -0.7776999999999998  2.2511  -7.1876999999999995 
C  0.03590000000000071  6.8841  -4.7598 
H  0.9507000000000003  6.6787  -5.1055 
C  0.20830000000000037  7.8076  -3.5577 
H  0.6336000000000004  8.6417  -3.8467000000000002 
H  0.7700000000000005  7.3688  -2.8865 
H  -0.6705999999999999  8.005600000000001  -3.1698 
C  -0.7133999999999996  7.5842  -5.8737 
H  -0.8074999999999997  6.9765999999999995  -6.6362 
H  -0.2153999999999998  8.382200000000001  -6.1514 
H  -1.6011999999999995  7.8487  -5.5543 
C  -3.3686  4.1982  -2.093 
H  -3.2297  3.3519  -1.5802 
C  -3.3068999999999997  5.332599999999999  -1.077 
H  -3.9181  5.1396  -0.3365999999999998 
H  -3.5686999999999998  6.1722  -1.5078999999999998 
H  -2.3923999999999994  5.4124  -0.734 
C  -4.759799999999999  4.1154  -2.6849 
H  -5.414199999999999  3.9991  -1.9662000000000002 
H  -4.8081  3.3517  -3.2972 
H  -4.9556  4.9399999999999995  -3.1755 
