79
unq_CSD-HUVQAR-02-a
N  -1.061399999999999  -0.12289999999999957  -1.5571000000000002 
N  0.3117000000000001  -1.8935999999999993  -0.37870000000000026 
N  -1.8031999999999995  0.7297000000000011  -2.2721 
N  -3.2856999999999994  0.14120000000000132  -5.491999999999999 
C  -1.7546999999999997  -1.280899999999999  -3.3689999999999998 
C  -1.0200999999999993  -1.3478999999999992  -2.1806 
C  -2.2349999999999994  0.042500000000000426  -3.382199999999999 
C  -1.9631999999999996  -2.3542999999999994  -4.3995999999999995 
H  -2.5168  -2.0146999999999995  -5.1075 
H  -2.3932  -3.1106999999999996  -3.9930000000000003 
H  -1.1145999999999994  -2.6228  -4.7592 
C  -0.28420000000000023  -2.3340999999999994  -1.4627 
C  -0.25820000000000043  -3.7615  -1.9176000000000002 
H  0.28410000000000046  -4.2783999999999995  -1.3177000000000003 
H  0.11010000000000097  -3.8089999999999993  -2.8032000000000004 
H  -1.1516000000000002  -4.1121  -1.9232999999999993 
C  1.0470000000000006  -2.8689999999999998  0.40520000000000067 
C  0.38150000000000084  -3.530899999999999  1.4513999999999996 
C  1.0778999999999996  -4.536  2.1237999999999992 
H  0.6646999999999998  -4.9834  2.8260000000000005 
C  2.3461999999999996  -4.8778999999999995  1.775500000000001 
H  2.7828  -5.5638  2.226099999999999 
C  2.9863  -4.209899999999999  0.7548000000000012 
H  3.857100000000001  -4.447399999999999  0.5317000000000007 
C  2.3557000000000006  -3.1822999999999997  0.04980000000000118 
C  -1.0253999999999994  -3.1720999999999995  1.866500000000002 
H  -1.3327  -2.441299999999999  1.2893000000000008 
C  -1.0495999999999999  -2.6727999999999996  3.302199999999999 
H  -1.9493  -2.4463999999999997  3.5481000000000016 
H  -0.49099999999999966  -1.895999999999999  3.3804000000000016 
H  -0.7224000000000004  -3.361999999999999  3.8850000000000016 
C  -1.9975999999999994  -4.3306  1.711500000000001 
H  -2.8766999999999996  -4.049799999999999  1.974499999999999 
H  -1.7157999999999998  -5.062099999999999  2.265900000000002 
H  -2.0144  -4.6133  0.7946000000000009 
C  2.9795999999999996  -2.593799999999999  -1.2266999999999992 
H  2.2441999999999993  -2.2748999999999997  -1.7896999999999998 
C  3.7554999999999996  -1.3835999999999995  -0.773299999999999 
H  3.1784999999999997  -0.8030999999999988  -0.27149999999999963 
H  4.0936  -0.9146000000000001  -1.5395000000000003 
H  4.4887999999999995  -1.6624999999999996  -0.21889999999999965 
C  3.8056  -3.5387999999999993  -2.0611999999999995 
H  4.131  -3.077399999999999  -2.837299999999999 
H  3.263300000000001  -4.2822  -2.3340999999999994 
H  4.548400000000001  -3.856699999999999  -1.5436999999999994 
C  -3.0710999999999995  0.729000000000001  -4.375399999999999 
C  -3.6189999999999998  2.0825000000000014  -4.0015 
H  -4.1402  2.4293000000000013  -4.7293 
H  -2.8914  2.681800000000001  -3.815299999999999 
H  -4.173  2.0002000000000013  -3.2225 
C  -4.0906  0.7052000000000014  -6.5219 
C  -3.4520999999999997  1.3890000000000011  -7.5695 
C  -4.2471  1.8452000000000002  -8.6342 
H  -3.8487999999999998  2.309800000000001  -9.3336 
C  -5.5915  1.6181999999999999  -8.6613 
H  -6.0988  1.9329999999999998  -9.3734 
C  -6.2058  0.9235000000000007  -7.6349 
H  -7.1234  0.7785000000000011  -7.667599999999999 
C  -5.4727  0.43540000000000134  -6.5503 
C  -1.8986999999999998  1.4723000000000006  -7.6079 
H  -1.5896  0.7780000000000005  -6.989599999999999 
C  -1.4521999999999995  2.797600000000001  -6.9796 
H  -1.9292999999999996  2.9398  -6.1579999999999995 
H  -1.6372999999999998  3.5191  -7.5851999999999995 
H  -0.5094999999999992  2.765500000000001  -6.8004999999999995 
C  -1.2739999999999991  1.1328000000000014  -8.9185 
H  -0.3196999999999992  1.215300000000001  -8.8489 
H  -1.5986000000000002  1.7344000000000008  -9.5923 
H  -1.5011999999999999  0.23190000000000133  -9.157399999999999 
C  -6.1234  -0.41359999999999886  -5.4826999999999995 
H  -5.7529  -0.14759999999999884  -4.615599999999999 
C  -7.6537999999999995  -0.23139999999999894  -5.423 
H  -8.015699999999999  -0.7852999999999994  -4.7265 
H  -8.0394  -0.4831000000000003  -6.2646 
H  -7.8596  0.6877000000000013  -5.239699999999999 
C  -5.7951999999999995  -1.8792999999999989  -5.701699999999999 
H  -6.2111  -2.4068999999999994  -5.016499999999999 
H  -4.8437  -2.0025999999999993  -5.6675 
H  -6.1231  -2.156299999999999  -6.561699999999999 
