87
unq_CSD-IBULIC-02-b
N  -0.9588999999999999  -0.40380000000000016  -1.6961000000000004 
N  -0.3685999999999998  1.8603  -0.5956000000000001 
N  -2.9943999999999997  1.1690999999999998  -4.140700000000001 
N  -2.5764  3.5883999999999996  -2.8269 
H  -2.7859  2.9755999999999996  -3.4223000000000003 
C  -1.5272999999999994  0.6865000000000001  -2.2615 
C  -2.339  0.3026  -3.4284000000000003 
C  -2.1904999999999997  -1.1515  -3.5034 
C  -1.3347999999999995  -1.5289000000000001  -2.4391000000000003 
C  -0.9767000000000001  -2.8551  -2.2496 
H  -0.3929999999999998  -3.1082  -1.5453000000000001 
C  -1.4981  -3.7998000000000003  -3.1213 
H  -1.2637  -4.713900000000001  -3.0086000000000004 
C  -2.3596999999999997  -3.4411  -4.1615 
H  -2.7073  -4.1116  -4.737 
C  -2.7102  -2.1215  -4.3603000000000005 
H  -3.2954  -1.8777000000000001  -5.0685 
C  -1.2351  1.9097  -1.6742 
C  -1.6593999999999998  3.2578  -1.9164000000000003 
C  -0.9508999999999999  4.062099999999999  -0.9575000000000005 
C  -0.19700000000000006  3.1546999999999996  -0.15669999999999984 
C  0.5975999999999999  3.6359  0.8918999999999997 
H  1.0913000000000004  3.0418  1.4449999999999994 
C  0.6398999999999999  4.9979  1.096 
H  1.1751000000000005  5.3383  1.8034999999999997 
C  -0.07960000000000012  5.9002  0.2964000000000002 
H  -0.014000000000000234  6.832899999999999  0.46169999999999956 
C  -0.8795000000000002  5.443099999999999  -0.7260999999999997 
H  -1.3732999999999995  6.051  -1.2641999999999998 
C  -3.8053999999999997  0.7730000000000001  -5.2526 
C  -5.1968  0.8102999999999998  -5.0834 
C  -5.9961  0.4906999999999999  -6.1765 
H  -6.9412  0.4941  -6.08 
C  -5.4402  0.1701999999999999  -7.3965000000000005 
H  -6.0011  -0.042200000000000015  -8.1325 
C  -4.0706  0.15769999999999995  -7.5491 
H  -3.7012  -0.05940000000000012  -8.3976 
C  -3.2142999999999997  0.45489999999999986  -6.4913 
C  -5.8223  1.1728  -3.7471 
H  -5.0799  1.4821  -3.1522 
C  -6.4584  -0.015600000000000058  -3.0737 
H  -6.8469999999999995  0.2629999999999999  -2.2193000000000005 
H  -5.7781  -0.7030000000000001  -2.9153000000000002 
H  -7.162  -0.37950000000000017  -3.6506000000000003 
C  -6.7991  2.3085  -3.8519 
H  -7.1731  2.5015  -2.9669000000000003 
H  -7.5241  2.0613  -4.4645 
H  -6.3404  3.1039999999999996  -4.1932 
C  -1.7076000000000002  0.4707999999999999  -6.71 
H  -1.2713999999999999  0.5334999999999999  -5.8124 
C  -1.1960999999999995  -0.7996000000000001  -7.3875 
H  -0.2242999999999995  -0.7386  -7.5040000000000004 
H  -1.6249000000000002  -0.8983000000000001  -8.2626 
H  -1.4102999999999994  -1.5763  -6.8288 
C  -1.2964000000000002  1.6961  -7.5076 
H  -1.6303999999999998  2.5019  -7.0633 
H  -1.6749  1.6393  -8.4099 
H  -0.3189000000000002  1.7348  -7.565300000000001 
C  -3.2492  4.8437  -2.9255 
C  -4.0458  5.301399999999999  -1.8639999999999999 
C  -4.7348  6.4961  -2.0621 
H  -5.273  6.8407  -1.3575 
C  -4.6598  7.190099999999999  -3.2369000000000003 
H  -5.1452  8.0  -3.3425000000000002 
C  -3.8800999999999997  6.719199999999999  -4.2656 
H  -3.8346999999999998  7.2087  -5.0783000000000005 
C  -3.1549  5.5351  -4.139200000000001 
C  -4.231  4.5153  -0.5697000000000001 
H  -3.4085  3.9637999999999995  -0.4356 
C  -5.3980999999999995  3.5646  -0.6909999999999998 
H  -5.5034  3.0684  0.14749999999999996 
H  -5.2332  2.9351  -1.4238 
H  -6.2164  4.0716  -0.8750999999999998 
C  -4.3893  5.3972999999999995  0.6593999999999998 
H  -4.5039  4.8339  1.4535999999999998 
H  -5.176  5.9708000000000006  0.5500999999999996 
H  -3.5907999999999998  5.9551  0.7673999999999994 
C  -2.3758  4.9498  -5.3127 
H  -1.9512  4.092499999999999  -5.021800000000001 
C  -1.2485  5.9605  -5.7117 
H  -0.6997999999999998  6.164999999999999  -4.9248 
H  -1.6547999999999998  6.7867  -6.049300000000001 
H  -0.6855000000000002  5.564500000000001  -6.409 
C  -3.2758  4.6714  -6.5096 
H  -4.0039  4.0741  -6.238300000000001 
H  -2.752  4.247299999999999  -7.2204 
H  -3.6513  5.5144  -6.8386000000000005 
