60
unq_CSD-FAYYUD-02-a
N  -0.1012000000000004  1.1128  1.613 
N  -0.11720000000000041  1.4594000000000005  -1.2988 
C  0.43189999999999973  0.654300000000001  2.8642 
C  -0.3938000000000006  -0.016899999999999693  3.7767000000000004 
C  -1.8756000000000004  -0.24179999999999957  3.5246999999999997 
H  -2.1338  0.2954000000000008  2.7218000000000004 
C  -2.7431  0.22109999999999985  4.694800000000001 
H  -2.5338000000000003  -0.31409999999999894  5.4886 
H  -3.6890000000000005  0.10860000000000092  4.4649 
H  -2.5625  1.1663000000000014  4.881400000000001 
C  -2.1434000000000006  -1.7058999999999997  3.2098999999999998 
H  -1.5867000000000004  -1.9842999999999993  2.4531000000000005 
H  -3.0889  -1.8228999999999997  2.9804999999999997 
H  -1.9271000000000003  -2.2532999999999994  3.9935000000000005 
C  0.18259999999999987  -0.519099999999999  4.945 
H  -0.3587000000000007  -0.9878999999999998  5.5692 
C  1.5259999999999998  -0.3453999999999997  5.207500000000001 
H  1.901299999999999  -0.6893999999999991  6.009500000000001 
C  2.3231  0.3269000000000002  4.306900000000001 
H  3.2441999999999993  0.4496000000000002  4.504300000000001 
C  1.8089999999999993  0.8318000000000012  3.1115 
C  2.7065  1.549900000000001  2.1145 
H  2.3889999999999993  1.3020000000000014  1.1993000000000005 
C  2.595699999999999  3.0723000000000003  2.2346999999999997 
H  1.6717999999999993  3.3475  2.0581 
H  3.1929999999999996  3.495700000000001  1.5833999999999997 
H  2.8512000000000004  3.347900000000001  3.1397999999999997 
C  4.176499999999999  1.1396000000000015  2.2093000000000003 
H  4.5671  1.5105000000000004  3.0279000000000003 
H  4.6623  1.4834000000000014  1.4306000000000005 
H  4.242099999999999  0.16210000000000058  2.2296 
C  -1.0206  3.0619000000000014  2.8103000000000002 
H  -1.8355000000000006  2.7148000000000003  3.2297 
H  -1.1448  4.0085000000000015  2.5893 
H  -0.2682000000000002  2.9674000000000014  3.4311000000000003 
C  -0.7322000000000006  2.281600000000001  1.5452 
C  -1.1600000000000001  2.8666  0.3474999999999997 
H  -1.7873  3.574300000000001  0.43809999999999993 
C  -0.7887000000000004  2.550700000000001  -0.9693999999999998 
C  -1.1802000000000001  3.5702  -2.0233999999999996 
H  -0.3846000000000007  4.065100000000001  -2.3106 
H  -1.8349000000000002  4.1945000000000014  -1.6465999999999998 
H  -1.5738000000000003  3.109300000000001  -2.7934 
C  0.5385999999999997  1.3558000000000003  -2.6234 
H  0.36959999999999926  2.2074  -3.1195 
C  -0.05990000000000073  0.22100000000000009  -3.4248 
H  0.06759999999999966  -0.622399999999999  -2.9421999999999997 
H  0.3827999999999996  0.16830000000000034  -4.2974 
H  -1.0180000000000007  0.38200000000000145  -3.5537 
C  2.0343  1.2388000000000012  -2.3876999999999997 
C  2.6858000000000004  2.317  -1.8047 
H  2.1862999999999992  3.0866000000000007  -1.5581999999999998 
C  4.0489  2.2905000000000015  -1.5766 
H  4.4780999999999995  3.042300000000001  -1.1864999999999997 
C  4.782399999999999  1.1844999999999999  -1.9104999999999999 
H  5.718  1.1643000000000008  -1.7473999999999998 
C  4.162699999999999  0.11500000000000021  -2.4774 
H  4.6701  -0.6552999999999995  -2.7062 
C  2.7887000000000004  0.13430000000000142  -2.7268999999999997 
H  2.3712999999999997  -0.6159999999999997  -3.1325 
