19
unq_CSD-FECZAS-02-a
N  1.3064999999999998  0.9839000000000002  1.1121999999999996 
N  2.0907  -0.764899999999999  -1.0015999999999998 
N  2.6845  2.388300000000001  2.2797 
C  4.4162  -0.06319999999999837  -0.6241000000000003 
C  3.0305999999999997  -0.05519999999999925  -0.3262999999999998 
C  4.8035  -0.8847999999999985  -1.6969000000000003 
H  5.698699999999999  -0.9369999999999994  -1.9428999999999998 
C  4.8416999999999994  1.571200000000001  1.154 
H  5.4353  2.088800000000001  1.6486 
C  2.6021  0.7794000000000008  0.7103000000000002 
C  5.2933  0.7529000000000003  0.15620000000000012 
H  6.2057  0.7262000000000004  -0.02179999999999982 
C  2.5108999999999995  -1.5216999999999992  -2.0014000000000003 
H  1.8846999999999987  -2.0192999999999994  -2.476 
C  3.8640999999999988  -1.6073999999999984  -2.3785 
H  4.1181  -2.1526999999999994  -3.0879000000000003 
C  3.4483999999999995  1.6144000000000016  1.4192999999999998 
C  1.4430999999999994  1.9672  2.0482999999999993 
H  0.7111000000000001  2.3229000000000006  2.4985 
