96
unq_CSD-FEGNOY-02-a
N  -0.21299999999999986  1.0926999999999998  1.6127000000000002 
N  -0.14690000000000003  -1.7466  0.8972999999999995 
C  0.2902  2.4607  1.6485000000000003 
C  1.5592000000000001  2.7145  2.1974 
C  2.0044  4.033899999999999  2.2075000000000014 
H  2.8371  4.223000000000001  2.575799999999999 
C  1.2614999999999998  5.061999999999999  1.696299999999999 
H  1.5811000000000002  5.9343  1.7317999999999998 
C  0.04800000000000004  4.795299999999999  1.1332000000000004 
H  -0.4535  5.4956  0.7821999999999996 
C  -0.45809999999999995  3.5  1.0719999999999992 
C  2.4833000000000003  1.6326  2.717699999999999 
H  1.976  0.7949999999999999  2.7644 
C  3.6532000000000004  1.4246999999999996  1.7654999999999994 
H  3.3205000000000005  1.2169999999999996  0.8894000000000002 
H  4.198  0.6993999999999998  2.080799999999998 
H  4.180199999999999  2.2263  1.725999999999999 
C  3.0271000000000003  1.9417  4.123800000000001 
H  3.6724  2.6501  4.068599999999998 
H  3.4437  1.1562999999999999  4.485799999999999 
H  2.3034000000000003  2.2118  4.6942 
C  -1.7443  3.2828  0.31569999999999965 
H  -2.0372  2.3621999999999996  0.4812999999999992 
C  -2.8841  4.2194  0.7349999999999994 
H  -3.0355999999999996  4.1364  1.6792999999999996 
H  -3.6845  3.9816000000000003  0.26069999999999993 
H  -2.6465  5.1258  0.5272000000000006 
C  -1.4813  3.4261999999999997  -1.1837999999999997 
H  -1.2618999999999998  4.3392  -1.3841999999999999 
H  -2.2676  3.1718  -1.6723999999999997 
H  -0.7498  2.8585000000000003  -1.4361999999999995 
C  -0.738  0.5755999999999997  2.7269999999999985 
C  -0.9975999999999999  1.4900000000000002  3.8925 
C  -0.2639  1.3720999999999997  5.062299999999999 
H  0.4300999999999999  0.7552000000000003  5.1114000000000015 
C  -0.5539000000000001  2.1635999999999997  6.1545000000000005 
H  -0.050799999999999956  2.0832999999999995  6.932899999999998 
C  -1.5779  3.064  6.0939 
H  -1.7719  3.5936000000000003  6.8332 
C  -2.3228  3.1917  4.949699999999998 
H  -3.0218  3.8039000000000005  4.915799999999999 
C  -2.0328  2.4033999999999995  3.8375000000000004 
H  -2.5347  2.4921999999999995  3.059800000000001 
C  -1.0956  -0.7927  2.918100000000001 
C  -1.7814999999999999  -1.1118000000000001  4.223799999999999 
C  -1.107  -1.763  5.2463 
H  -0.22209999999999996  -2.0223  5.124799999999999 
C  -1.7469  -2.0304  6.453200000000001 
H  -1.2852000000000001  -2.4601  7.1364 
C  -3.0417  -1.6674000000000002  6.638 
H  -3.463  -1.8494000000000002  7.446699999999998 
C  -3.7236000000000002  -1.0389  5.645999999999999 
H  -4.6129999999999995  -0.8007  5.7745000000000015 
C  -3.0972  -0.7515000000000001  4.4414 
H  -3.5697  -0.31079999999999997  3.7723999999999993 
C  -0.7670999999999999  -1.8883999999999999  2.070500000000001 
C  -1.1905000000000001  -3.2645  2.5382000000000016 
C  -0.29499999999999993  -4.2918  2.7963000000000005 
H  0.6114000000000002  -4.1627  2.632199999999999 
C  -0.7334  -5.5092  3.2956999999999983 
H  -0.12029999999999985  -6.1849  3.4749999999999996 
C  -2.0728999999999997  -5.7208000000000006  3.5272999999999985 
H  -2.366  -6.5339  3.8705000000000016 
C  -2.9724  -4.7264  3.248800000000001 
H  -3.8800999999999997  -4.872  3.390600000000001 
C  -2.5411  -3.5064  2.757900000000001 
H  -3.1630000000000003  -2.8401  2.572799999999999 
C  0.38339999999999996  -2.8845  0.18430000000000035 
C  1.7833999999999999  -3.0832  0.2544000000000004 
C  2.3222  -4.14  -0.4704999999999995 
H  3.2359000000000004  -4.3062000000000005  -0.4167000000000005 
C  1.5426000000000002  -4.9442  -1.2631999999999994 
H  1.9313000000000002  -5.6378  -1.7459000000000007 
C  0.1995  -4.7269  -1.3434000000000008 
H  -0.3165  -5.2736  -1.8911999999999995 
C  -0.42280000000000006  -3.7032  -0.6231000000000009 
C  2.6875000000000004  -2.1697  1.062899999999999 
H  2.2958000000000003  -1.2726000000000002  1.0151000000000003 
C  4.0825  -2.0672  0.4754000000000005 
H  4.527900000000001  -2.9138  0.5587999999999997 
H  4.5806000000000004  -1.3961999999999999  0.9480000000000004 
H  4.0227  -1.8274  -0.4520999999999997 
C  2.7822  -2.5263999999999998  2.536299999999999 
H  1.9188999999999998  -2.4289  2.9449999999999985 
H  3.4080999999999997  -1.9396  2.967599999999999 
H  3.0791999999999997  -3.4341  2.6273999999999997 
C  -1.9196  -3.5576  -0.7542000000000009 
H  -2.2159  -2.8548999999999998  -0.1387999999999998 
C  -2.3165999999999998  -3.1497  -2.1776999999999997 
H  -1.8801999999999999  -2.3263  -2.408200000000001 
H  -3.2683  -3.0309  -2.222900000000001 
H  -2.0504  -3.8364000000000003  -2.7934 
C  -2.6261  -4.867  -0.3680000000000003 
H  -2.407  -5.5491  -1.0070999999999994 
H  -3.5757  -4.7282  -0.3606999999999996 
H  -2.3358  -5.1414  0.504999999999999 
