68
unq_CSD-MAQTUX-02-a
N  -0.8294999999999999  2.2122  0.5183 
N  0.9456  2.0443  -0.8087999999999997 
N  2.9169  4.274799999999999  -0.39339999999999975 
C  3.2605  3.8622999999999994  0.8877000000000006 
C  3.3756999999999997  4.995900000000001  1.636800000000001 
H  3.5857  5.0280000000000005  2.5413999999999994 
C  3.1250999999999998  6.104100000000001  0.8204000000000011 
H  3.1427  6.994  1.0912000000000006 
C  2.8529999999999998  5.6607  -0.4285999999999994 
C  3.4777  2.4548000000000005  1.2446000000000002 
H  2.6311999999999998  2.0094000000000003  1.3222000000000005 
H  3.9435  2.4055  2.082700000000001 
H  4.0022  2.0286  0.5622000000000007 
C  2.5463999999999998  6.437200000000001  -1.6488999999999994 
H  3.3103  6.432599999999999  -2.2307000000000006 
H  2.3334  7.340999999999999  -1.4071999999999996 
H  1.7979999999999998  6.040799999999999  -2.100199999999999 
C  2.8773999999999997  3.4482999999999997  -1.5579999999999998 
C  3.8427  3.6684  -2.529299999999999 
H  4.4893  4.3203  -2.3832000000000004 
C  3.8727  2.9502000000000006  -3.7075999999999993 
H  4.5379  3.1073000000000004  -4.338099999999999 
C  2.9006  1.9944999999999995  -3.9382 
H  2.8987  1.5142999999999995  -4.734999999999999 
C  1.9344  1.7565  -2.9840999999999998 
H  1.2858999999999998  1.1116000000000001  -3.1519999999999992 
C  1.9006999999999998  2.4549000000000003  -1.766399999999999 
C  -0.06420000000000003  2.8081999999999994  -0.38729999999999976 
C  -0.37070000000000025  4.1434  -0.9994999999999994 
C  -0.5945  5.2780000000000005  -0.23499999999999943 
H  -0.5252000000000003  5.234399999999999  0.6905999999999999 
C  -0.9213  6.477  -0.8476999999999997 
H  -1.064  7.236000000000001  -0.3287999999999993 
C  -1.0345  6.5534  -2.2111 
H  -1.2629000000000001  7.3605  -2.6129999999999995 
C  -0.8139000000000003  5.446299999999999  -2.9803999999999995 
H  -0.8884000000000003  5.501200000000001  -3.9056999999999995 
C  -0.4761000000000002  4.236699999999999  -2.3833 
H  -0.31910000000000016  3.4865999999999993  -2.911199999999999 
C  -1.9501999999999997  2.8523999999999994  1.1500000000000004 
C  -1.8272000000000004  3.138  2.5305999999999997 
C  -2.9141000000000004  3.7223000000000006  3.1785999999999994 
H  -2.8436000000000003  3.9299  4.082099999999999 
C  -4.0837  4.001799999999999  2.5188000000000006 
H  -4.7903  4.4033999999999995  2.9718 
C  -4.2081  3.6881000000000004  1.1990999999999996 
H  -5.011  3.8658  0.7653999999999996 
C  -3.1581  3.106  0.4770000000000003 
C  -0.5543  2.8427000000000007  3.2897 
H  -0.08720000000000017  2.1243999999999996  2.8137000000000008 
C  -0.7865000000000002  2.3665000000000003  4.7323 
H  0.0394000000000001  2.042  5.099400000000001 
H  -1.4375999999999998  1.6616999999999997  4.736800000000001 
H  -1.1054  3.100199999999999  5.264100000000001 
C  0.3677999999999999  4.0398  3.325100000000001 
H  -0.10340000000000016  4.7964  3.6815000000000015 
H  0.6680999999999999  4.2393  2.4357000000000006 
H  1.1253  3.8436000000000003  3.8820999999999994 
C  -3.3997  2.770199999999999  -0.9807000000000006 
H  -2.5652999999999997  2.4231999999999996  -1.357899999999999 
C  -4.4778  1.6992000000000003  -1.1372 
H  -4.2369  0.9246999999999996  -0.6240000000000006 
H  -4.5561  1.4574999999999996  -2.0633999999999997 
H  -5.3182  2.042  -0.8243999999999989 
C  -3.8042  4.0161999999999995  -1.7735000000000003 
H  -3.8350999999999997  3.8033  -2.7095000000000002 
H  -3.1603000000000003  4.7127  -1.625399999999999 
H  -4.6697  4.3134  -1.4842999999999993 
