27
unq_CSD-POYVAD-02-a
N  -0.8809  0.8642999999999996  1.7579999999999996 
N  -1.5573000000000001  -1.4375000000000002  0.5021 
N  -1.9218000000000002  -4.726  -1.0443000000000002 
C  -0.5505000000000004  2.0493  2.3063 
H  0.1726000000000001  2.514  1.9522999999999997 
C  -1.2352000000000003  2.6070999999999995  3.3683 
H  -0.9871000000000003  3.4338  3.7132 
C  -2.3069  1.8980000000000001  3.9100999999999995 
H  -2.7895000000000003  2.2483999999999997  4.6234 
C  -2.6465  0.6744999999999997  3.3759 
H  -3.3498  0.1856  3.738 
C  -1.9268  0.1700999999999997  2.2879 
C  -2.2445  -1.0751000000000002  1.6365000000000003 
C  -3.1683000000000003  -2.0611  1.9899 
H  -3.7486  -2.0494000000000003  2.7169000000000003 
C  -3.0428  -3.0648  1.0330999999999997 
H  -3.5262000000000002  -3.8582  1.0024000000000002 
C  -2.0543  -2.6585  0.12379999999999969 
C  -1.7207000000000003  -3.3877  -1.1041000000000003 
C  -1.3184  -2.7653000000000003  -2.2908 
H  -1.1952000000000003  -1.8434000000000001  -2.3158000000000003 
C  -1.1063  -3.5212000000000003  -3.4182 
H  -0.8406000000000002  -3.1178000000000003  -4.212400000000001 
C  -1.2958000000000003  -4.9043  -3.3568000000000002 
H  -1.1487000000000003  -5.4432  -4.1015 
C  -1.7073  -5.4417  -2.1569000000000003 
H  -1.8454000000000002  -6.361000000000001  -2.1172000000000004 
