29
unq_CSD-WEYQAS-02-a
N  -1.2175  0.9865  -1.0663 
N  -1.4891  1.5097  0.2674000000000003 
Si  -2.4912  0.7143  -2.2324 
Si  -1.2957  3.2479  0.6350999999999996 
C  -4.084  0.3418  -1.3642000000000003 
H  -4.3536  1.1058  -0.8482000000000003 
H  -3.963  -0.4116  -0.7828999999999997 
H  -4.7625  0.13979999999999998  -2.0134000000000007 
C  -2.7368  2.1806  -3.3353 
H  -1.9159000000000002  2.3791  -3.7925000000000004 
H  -3.0004  2.9376  -2.8076000000000008 
H  -3.4217000000000004  1.9856999999999998  -3.9793000000000003 
C  -1.9407  -0.7294999999999999  -3.2464999999999993 
H  -1.1115000000000002  -0.517  -3.6814999999999998 
H  -2.6073000000000004  -0.9297  -3.9074 
H  -1.8162  -1.4918  -2.6755999999999993 
C  -2.7908  4.1617  0.033500000000000085 
H  -3.5699  3.8333000000000004  0.4880999999999993 
H  -2.8894  4.0264999999999995  -0.9108999999999998 
H  -2.6862000000000004  5.0996  0.2137999999999991 
C  0.2064999999999999  3.8965  -0.23029999999999973 
H  0.9823  3.4223000000000003  0.07659999999999911 
H  0.3074999999999999  4.832599999999999  -0.03829999999999956 
H  0.10939999999999994  3.7736  -1.1774000000000004 
C  -1.1785  3.3556000000000004  2.468399999999999 
H  -0.3995000000000002  2.8796  2.7675 
H  -1.9618000000000002  2.9639  2.8615999999999993 
H  -1.1133000000000002  4.2759  2.731 
H  -2.2194000000000003  1.1883  0.5612999999999992 
