52
unq_CSD-WEZDUC-02-a
N  1.1340000000000003  1.5245  0.8870000000000005 
N  -0.48249999999999993  0.40379999999999994  1.9739000000000004 
Si  2.5211000000000006  2.5389999999999997  0.4704000000000015 
Si  -1.3129999999999997  -0.4836  3.2524000000000015 
C  0.5605000000000011  1.2503  2.0451000000000015 
C  1.0959000000000003  1.7566  3.351700000000001 
C  0.6719000000000008  2.9485  3.918800000000001 
H  0.03359999999999985  3.4768  3.474499999999999 
C  1.184000000000001  3.3651  5.134499999999999 
H  0.8934999999999995  4.1791  5.503600000000002 
C  2.113200000000001  2.6083  5.816300000000002 
C  2.5336  1.4217000000000002  5.247800000000002 
H  3.160400000000001  0.889  5.703099999999999 
C  2.0456000000000003  1.0006  4.0108999999999995 
H  2.3618000000000006  0.20340000000000003  3.627200000000002 
C  2.6685  3.0426  7.1579000000000015 
H  2.9799000000000007  2.2497  7.6434999999999995 
H  1.9466999999999999  3.4468999999999994  7.6829 
C  4.0175  1.4542  0.3214000000000006 
H  3.803000000000001  0.6807000000000001  -0.2215999999999987 
H  4.2934  1.1624  1.2042000000000002 
H  4.7387  1.9526000000000001  -0.09600000000000009 
C  2.0829000000000004  3.3731  -1.1265 
H  2.045300000000001  2.7129000000000003  -1.8369 
H  2.7566000000000006  4.0385  -1.339500000000001 
H  1.2188999999999997  3.8029  -1.0390999999999977 
C  2.8857999999999997  3.8609  1.7030999999999992 
H  2.0869  4.390899999999999  1.854300000000002 
H  3.5938  4.4323  1.3642000000000003 
H  3.1690000000000005  3.4566  2.538800000000002 
C  -3.0778  -0.7398  2.790700000000001 
H  -3.5161999999999995  0.12080000000000002  2.698900000000002 
H  -3.521  -1.2566  3.4818999999999996 
H  -3.1247999999999996  -1.218  1.9478000000000009 
C  -0.4602000000000004  -2.1119  3.4632000000000005 
H  0.47820000000000107  -1.9625  3.6568000000000005 
H  -0.5442999999999998  -2.6288  2.6472000000000016 
H  -0.8675999999999995  -2.5971  4.198499999999999 
C  -1.3595999999999995  0.42490000000000006  4.876899999999999 
H  -0.46030000000000015  0.49429999999999996  5.235199999999999 
H  -1.9193999999999996  -0.06030000000000002  5.503600000000002 
H  -1.7223999999999995  1.3144000000000002  4.7402000000000015 
C  3.8133999999999997  4.0341  7.0579 
H  4.4871  3.6825  6.439299999999999 
H  3.4762000000000004  4.8761  6.685600000000001 
C  4.469800000000001  4.3126999999999995  8.397000000000002 
H  3.800600000000001  4.6907  9.005200000000002 
H  4.777000000000001  3.4654  8.781100000000002 
C  5.642799999999999  5.2629  8.311800000000002 
H  6.0784  5.3183  9.177600000000002 
H  5.3285  6.142799999999999  8.0522 
H  6.275500000000001  4.9368  7.6533000000000015 
