19
unq_CSD-WOZXEO-02-a
N  0.8782999999999999  1.5812  1.0114999999999998 
N  -0.18789999999999996  1.5711  -1.4373999999999998 
N  1.0340999999999998  3.8437  1.1656000000000004 
C  1.6529999999999998  1.8901  2.1254 
C  1.7479999999999998  3.2923999999999998  2.2151000000000005 
C  -0.27310000000000034  2.851  -0.7326999999999999 
C  0.5648999999999997  2.7692  0.5061999999999998 
C  2.5168  3.8907  3.2094000000000005 
C  2.3122  1.0722999999999998  3.0389 
C  3.0846999999999998  1.6858  3.997700000000001 
C  3.1849999999999996  3.0674  4.0802000000000005 
H  2.2089999999999996  0.1508  2.9996 
H  -1.1724  2.9919  -0.4987999999999997 
H  -0.8029000000000002  1.4868999999999999  -1.9727999999999999 
H  0.019600000000000062  3.5432  -1.2752999999999997 
H  2.5902  4.8505  3.2614 
H  3.7087  3.3994  4.7031 
H  0.5721999999999998  1.5479999999999998  -1.8634 
H  3.518  1.1777  4.5597 
