27
unq_CSD-POZPAX-02-a
N  -1.6087000000000007  -0.7919  -1.0625999999999998 
N  -0.6377000000000006  -1.0213999999999999  1.666599999999999 
C  -1.9276  -0.5147999999999993  -2.3296 
H  -1.3827999999999996  -0.043199999999998795  -2.9171000000000005 
C  -3.1949000000000005  -1.0303999999999984  -2.6634 
H  -3.6285000000000007  -0.9558  -3.4828 
C  -3.6630000000000003  -1.6646  -1.5350000000000001 
H  -4.4764  -2.1061999999999994  -1.4460999999999995 
C  -2.667299999999999  -1.515699999999999  -0.5349000000000004 
C  -2.7566000000000006  -1.9455999999999989  0.8034999999999997 
C  -1.8453999999999997  -1.7254999999999985  1.8255 
C  -1.9603000000000002  -2.108699999999999  3.204699999999999 
H  -2.6572999999999993  -2.5946999999999996  3.5837000000000003 
C  -0.8750999999999998  -1.636099999999999  3.8476 
H  -0.6838999999999995  -1.7195999999999998  4.753 
C  -0.07980000000000054  -0.9861999999999984  2.8664000000000005 
H  0.7384000000000004  -0.5812999999999988  3.0457 
C  -3.9931  -2.7155999999999993  1.1853999999999996 
C  -4.2815  -3.949699999999999  0.6591000000000005 
H  -3.7218  -4.320799999999999  0.016199999999999548 
C  -5.4013  -4.644799999999999  1.080499999999999 
H  -5.555499999999999  -5.485799999999999  0.7159999999999993 
C  -6.0373  -2.9720999999999993  2.3649000000000004 
H  -6.6737  -2.587299999999999  2.9232999999999993 
C  -4.9292  -2.206899999999999  2.0296000000000003 
H  -4.8286  -1.3515999999999995  2.3795 
N  -6.249  -4.1953  1.9522999999999993 
