37
unq_CSD-POZPIF-02-a
N  -0.39570000000000016  1.3855  -1.4848000000000008 
N  1.9862  -0.04119999999999999  -0.6033 
C  -1.5870000000000002  1.8721999999999999  -1.8347000000000007 
H  -2.3808  1.6686999999999999  -1.3953000000000007 
C  -1.5006  2.7314  -2.9460000000000006 
H  -2.2024999999999997  3.1742  -3.3652 
C  -0.1746000000000003  2.7851  -3.2891000000000004 
H  0.19689999999999985  3.2754  -3.9856000000000003 
C  0.5220999999999998  1.9480999999999997  -2.3762000000000008 
C  1.9055  1.7099000000000002  -2.3488000000000007 
C  2.5885  0.8148000000000001  -1.5308000000000002 
C  3.9981  0.5681  -1.5394000000000005 
H  4.6335  1.012  -2.0529 
C  4.2346  -0.4376  -0.6522000000000006 
H  5.056699999999999  -0.8234  -0.4489000000000001 
C  2.971  -0.777  -0.10350000000000037 
H  2.8470999999999997  -1.4411999999999998  0.5345999999999993 
C  2.7422999999999997  2.491  -3.3108000000000004 
C  3.1473  1.9386  -4.514800000000001 
H  2.8792999999999997  1.0762999999999998  -4.7404 
C  3.9478  2.6565  -5.386800000000001 
H  4.193099999999999  2.2748999999999997  -6.1985 
C  4.390499999999999  3.9320999999999997  -5.0763 
C  3.9858  4.4782  -3.8621000000000003 
H  4.2725  5.3311  -3.6253 
C  3.1651999999999996  3.774  -3.0023 
H  2.8918  4.1672  -2.2044000000000006 
C  5.2843  4.679600000000001  -6.0032000000000005 
C  5.3621  4.382300000000001  -7.3561000000000005 
H  4.834  3.7055  -7.713800000000001 
C  6.2264  5.0939000000000005  -8.1721 
H  6.2543  4.8704  -9.0747 
C  6.9369  6.361000000000001  -6.4552000000000005 
H  7.4787  7.041  -6.127000000000001 
C  6.0998  5.7137  -5.5624 
H  6.0843  5.971  -4.668900000000001 
N  7.0165999999999995  6.0732  -7.752400000000001 
