31
unq_CSD-INEXAC-02-a
N  1.3815999999999997  -0.1955  1.3377999999999999 
N  -1.1801000000000004  -0.8014000000000001  1.3326 
C  2.6557999999999993  0.08660000000000023  1.6838 
H  3.2871999999999995  0.4344000000000001  1.0955000000000001 
C  2.9219  -0.20209999999999972  3.0216000000000003 
H  3.7147999999999994  -0.04239999999999977  3.4792000000000005 
C  1.8035999999999994  -0.7597999999999998  3.5201000000000002 
H  1.7017999999999995  -1.0814  4.3873 
C  0.7780999999999993  -0.7772999999999999  2.4891000000000005 
C  -0.5665000000000004  -1.1229  2.4290000000000003 
C  -1.1473000000000004  -1.8578999999999999  3.5585000000000004 
H  -2.0724000000000005  -2.0393999999999997  3.3807 
H  -1.0710000000000006  -1.3285  4.3568 
H  -0.6758000000000006  -2.6869  3.6770000000000005 
C  -2.5513000000000003  -1.1339  1.2463 
C  -2.9892000000000003  -2.3019  0.6885000000000001 
H  -2.3488  -2.9034  0.3808 
C  -4.3097  -2.6496999999999997  0.5534000000000001 
C  -5.2613  -1.7748  1.011 
H  -6.161200000000001  -1.9979  0.9324999999999999 
C  -4.9271  -0.6242000000000001  1.5582999999999998 
C  -3.5356000000000005  -0.24359999999999982  1.7143 
H  -3.3025  0.5657000000000001  2.1117 
C  -4.7374  -3.9817  -0.09499999999999997 
H  -5.696000000000001  -4.0364  -0.10460000000000003 
H  -4.3824000000000005  -4.7123  0.4183000000000001 
H  -4.402500000000001  -4.0233  -0.9901000000000001 
C  -6.0259  0.4147000000000003  2.0664 
H  -5.5895  1.1803000000000003  2.4508 
H  -6.5795  -0.0030000000000001137  2.7323000000000004 
H  -6.569700000000001  0.6947000000000001  1.3282 
