52
unq_CSD-JIFZAC-02-a
N  1.9694000000000003  -0.6362000000000005  0.16830000000000034 
N  0.39390000000000036  -0.12100000000000044  -2.0277000000000003 
N  3.3680000000000003  -2.5007000000000006  -0.06770000000000032 
N  0.5648  -1.6914000000000002  -3.7492 
C  2.3146000000000004  -1.7636000000000003  -0.5125000000000002 
C  1.5950000000000006  -2.1961000000000004  -1.6453000000000007 
H  1.6051000000000002  -3.1203000000000003  -1.8650000000000002 
C  0.8645000000000014  -1.3195000000000006  -2.462300000000001 
C  2.9756  0.29519999999999946  0.545399999999999 
C  4.0534  0.5739999999999998  -0.30630000000000024 
H  4.1541000000000015  0.0827  -1.1131000000000002 
C  4.975800000000001  1.5612999999999992  0.01699999999999946 
H  5.700900000000001  1.7292999999999994  -0.5733000000000006 
C  4.8634  2.3100999999999994  1.1847999999999992 
C  3.8034  2.0184999999999995  2.0355999999999987 
H  3.7083000000000013  2.5058999999999996  2.8453999999999997 
C  2.8789  1.0259999999999998  1.7233999999999998 
H  2.1683000000000003  0.8445999999999998  2.3271999999999995 
C  5.844900000000001  3.412399999999999  1.5045000000000002 
H  6.7592  3.0791999999999993  1.3895 
H  5.7178  3.704299999999999  2.4314 
H  5.6945000000000014  4.169199999999999  0.9001999999999999 
C  0.5136000000000003  1.0062999999999995  -2.8847000000000005 
C  -0.4642999999999997  1.9962  -2.9213000000000005 
H  -1.236299999999999  1.9120999999999997  -2.373900000000001 
C  -0.32779999999999987  3.1048999999999998  -3.7465 
H  -1.0108999999999995  3.7649999999999997  -3.7525000000000004 
C  0.7847000000000008  3.2726999999999995  -4.5648 
C  1.763300000000001  2.2848999999999995  -4.524800000000001 
H  2.532  2.3701999999999996  -5.076600000000001 
C  1.6416000000000004  1.1753999999999998  -3.6952000000000007 
H  2.333  0.5240999999999998  -3.6785000000000005 
C  0.9268999999999998  4.4964  -5.439 
H  1.4088000000000012  5.1941999999999995  -4.948 
H  0.03780000000000072  4.826  -5.6866 
H  1.4260000000000002  4.2627999999999995  -6.2492 
C  3.8740000000000006  -2.3742000000000005  1.2934999999999999 
H  4.6647  -1.7952000000000004  1.2956000000000003 
H  4.116800000000001  -3.2600000000000002  1.635299999999999 
H  3.1807  -1.9824000000000006  1.8646999999999991 
C  3.956900000000001  -3.5706  -0.8691000000000004 
H  3.437800000000001  -4.393000000000001  -0.7480000000000002 
H  4.881500000000001  -3.7226000000000004  -0.5821000000000005 
H  3.9464000000000006  -3.3140000000000005  -1.8149000000000006 
C  1.3597000000000001  -2.6601000000000004  -4.4831 
H  2.2386  -2.7499000000000002  -4.059 
H  1.4730000000000008  -2.3561000000000005  -5.408 
H  0.9042000000000012  -3.5277000000000003  -4.4779 
C  -0.5900999999999996  -1.1672000000000002  -4.4651000000000005 
H  -1.2334999999999994  -0.8004000000000007  -3.8234000000000004 
H  -1.012999999999999  -1.8888000000000003  -4.9758000000000004 
H  -0.3006999999999991  -0.4594000000000005  -5.0783000000000005 
