59
unq_CSD-FASYIK-02-a
N  -0.0878000000000001  -1.0103999999999997  2.1282 
N  -0.1987000000000001  1.2227000000000006  2.0086 
N  -0.6045000000000003  2.171400000000001  6.4199 
C  -0.2003999999999997  0.14410000000000078  2.7854 
C  -0.30469999999999997  0.24350000000000005  4.2989 
H  -0.1408999999999998  -0.649  4.6947 
H  0.39690000000000003  0.8560000000000008  4.6335 
C  -1.6590000000000003  0.7462000000000009  4.7492 
C  -1.7864  1.7028000000000008  5.771599999999999 
C  -3.0513999999999997  2.1899000000000006  6.0836 
H  -3.1405999999999996  2.8488999999999995  6.7618 
C  -4.1776  1.7406999999999995  5.4326 
H  -5.0313  2.0925000000000002  5.6596 
C  -4.067399999999999  0.7861000000000002  4.456799999999999 
H  -4.842699999999999  0.4607000000000001  4.0150999999999994 
C  -2.8170999999999995  0.2997000000000005  4.1203 
H  -2.7471  -0.35999999999999943  3.4402 
C  -0.08650000000000002  1.2375999999999996  7.3734 
H  -0.08769999999999989  0.3384000000000009  6.9834 
H  -0.6472000000000002  1.2464000000000004  8.1766 
H  0.8302  1.4896000000000003  7.6112 
C  -0.6815000000000002  3.5010000000000003  7.0078 
H  -1.0523000000000002  4.127  6.3527000000000005 
H  0.21660000000000013  3.795000000000001  7.2688 
H  -1.2593999999999999  3.4753999999999996  7.7988 
C  -0.1477999999999997  -2.3216  2.7619 
H  -0.5973000000000002  -2.2344  3.6509 
C  1.2609  -2.8861  2.9699999999999998 
H  1.7469999999999999  -2.8609999999999998  2.1069999999999998 
H  1.7482000000000002  -2.3066999999999993  3.6073999999999997 
C  1.2622  -4.3042  3.4932 
H  0.8963999999999999  -4.3130999999999995  4.4133 
H  2.1936  -4.6384  3.5313 
C  0.4275000000000002  -5.2295  2.6085 
H  0.8599000000000001  -5.3171  1.7222999999999997 
H  0.387  -6.13  3.0189 
C  -0.9803999999999999  -4.6884999999999994  2.4345 
H  -1.4834  -5.2726999999999995  1.8133999999999997 
H  -1.4464000000000001  -4.696899999999999  3.307 
C  -0.9552999999999998  -3.2737  1.8880999999999997 
H  -1.8844999999999996  -2.9379999999999997  1.8175 
H  -0.5665999999999998  -3.2854  0.9775999999999998 
C  -0.2282999999999995  2.5825000000000005  2.5362 
H  -0.1541999999999999  2.5398000000000005  3.5326 
C  -1.5256000000000003  3.282800000000001  2.1763 
H  -2.2849  2.792600000000001  2.5812999999999997 
H  -1.6434000000000002  3.268300000000001  1.1936 
C  -1.5405000000000002  4.730900000000001  2.6669 
H  -2.3794  5.1671000000000005  2.372 
H  -1.5211999999999999  4.7418000000000005  3.6563 
C  -0.3546999999999998  5.5095  2.1328 
H  -0.3626999999999998  6.423700000000001  2.5147 
H  -0.42979999999999974  5.5888  1.1488 
C  0.9586000000000001  4.8206  2.4875 
H  1.0834000000000001  4.8344  3.4701 
H  1.7116000000000002  5.3128  2.0743 
C  0.9601999999999999  3.373  1.9922 
H  0.9304000000000001  3.366500000000001  1.0034 
H  1.8014000000000001  2.9332000000000003  2.2741 
