32
unq_CSD-FEYMIG-02-a
N  1.1772999999999998  0.30829999999999913  -1.3735999999999997 
N  -0.6725000000000003  -1.4803999999999995  -0.9051999999999989 
C  1.3544  -0.32670000000000066  -2.5375999999999994 
C  0.6266999999999996  -1.4475999999999996  -2.8737999999999992 
H  0.8091999999999997  -1.8567999999999998  -3.6887999999999987 
C  2.3523999999999994  0.2201000000000004  -3.497399999999999 
C  2.0923999999999996  0.24929999999999986  -4.863499999999999 
H  1.2923  -0.09699999999999953  -5.187499999999999 
C  3.0043999999999995  0.7830999999999992  -5.7387999999999995 
H  2.8138999999999994  0.7996999999999996  -6.649299999999999 
C  4.1918  1.290799999999999  -5.283499999999999 
H  4.803999999999999  1.6531000000000002  -5.882699999999999 
C  4.4746  1.2637  -3.9434999999999985 
H  5.2829999999999995  1.6022999999999996  -3.6309999999999985 
C  3.5603  0.734399999999999  -3.0558999999999994 
H  3.7583  0.7232000000000003  -2.1471 
H  1.6818999999999997  0.9317999999999991  -1.3091999999999988 
C  -0.35970000000000013  -2.0068  -2.075099999999999 
C  -1.0818000000000003  -3.2788000000000004  -2.5650999999999993 
C  -0.04360000000000008  -4.402  -2.6737 
H  0.35379999999999967  -4.5552  -1.8135999999999992 
H  0.6376999999999997  -4.1486  -3.299999999999999 
H  -0.47330000000000005  -5.2068  -2.975199999999999 
C  -1.6874000000000002  -3.0173000000000005  -3.9559999999999995 
H  -2.0856000000000003  -3.8251999999999997  -4.2881 
H  -0.9961000000000002  -2.7302  -4.557499999999999 
H  -2.3581000000000003  -2.334200000000001  -3.8894 
C  -2.1965000000000003  -3.7332  -1.6349999999999998 
H  -1.8313000000000001  -3.9261  -0.7690000000000001 
H  -2.6087000000000002  -4.5232  -1.9920999999999989 
H  -2.8526000000000002  -3.0368999999999993  -1.5576999999999988 
H  -1.3258000000000003  -1.8954000000000004  -0.5191999999999997 
