60
unq_CSD-RAHCAF-02-a
N  1.3431999999999995  1.3406000000000002  0.31300000000000017 
N  -1.4775  0.8658000000000001  1.0023000000000004 
C  -2.6626000000000003  0.10159999999999947  1.2281999999999997 
C  -3.5484  -0.10529999999999973  0.17940000000000023 
C  -1.3574000000000002  2.0669000000000004  1.5299999999999998 
C  -4.8676  -1.5579999999999998  1.5877000000000003 
H  -5.6251  -2.1179999999999994  1.7131000000000003 
C  -2.8384  -0.5625  2.4633999999999996 
C  -3.9634  -1.3739999999999997  2.6085 
H  -4.1101  -1.8122999999999996  3.438 
C  -1.8287000000000002  -0.4624000000000006  3.5864 
H  -1.3404000000000003  0.4018999999999995  3.4594 
C  -0.17870000000000008  2.8162000000000003  1.4674 
H  -0.24580000000000002  3.6953999999999994  1.8218999999999999 
C  -2.5432  2.7296999999999993  2.2358 
H  -3.3131000000000004  2.752700000000001  1.629 
H  -2.3021000000000003  3.6453000000000007  2.4898000000000002 
H  -2.7737000000000003  2.218400000000001  3.0372999999999997 
C  -4.6668  -0.9317000000000002  0.40210000000000035 
H  -5.298  -1.0534999999999997  -0.2970999999999999 
C  -3.3519  0.5493000000000006  -1.1875999999999998 
H  -2.4089  0.8752999999999993  -1.2338 
C  3.4885  0.22060000000000102  0.661 
C  1.0808999999999997  2.4794  0.9693 
C  2.2303999999999995  3.430300000000001  1.2167 
H  2.9448999999999996  2.9609000000000005  1.6949 
H  1.9189999999999996  4.1876999999999995  1.7559 
H  2.5732999999999997  3.760300000000001  0.35919999999999996 
C  2.6742  1.0349000000000004  -0.12559999999999993 
C  -4.266900000000001  1.7626000000000008  -1.3262 
H  -5.197  1.4879999999999995  -1.1892999999999998 
H  -4.1679  2.1453000000000007  -2.2233 
H  -4.0218  2.434800000000001  -0.6549999999999998 
C  4.373  1.0944000000000003  -1.8159 
H  4.687  1.4108999999999998  -2.6553 
C  3.1102999999999996  1.4907000000000004  -1.3723 
C  5.1742  0.2638999999999996  -1.0788000000000002 
H  6.019099999999999  -0.02009999999999934  -1.407 
C  3.0131999999999994  -0.2364999999999995  2.0098999999999996 
H  3.6689999999999996  -0.8547000000000002  2.3941000000000003 
H  2.1521  -0.6936999999999998  1.9143000000000003 
H  2.9086999999999996  0.5385000000000009  2.5986 
C  2.2461  2.3941999999999997  -2.2397 
H  1.4893999999999998  1.8816000000000006  -2.5943 
H  2.7802  2.7445000000000004  -2.9818 
H  1.9093  3.1395  -1.6987999999999999 
C  -2.4016  -0.43539999999999957  4.960099999999999 
H  -3.0028  0.3329000000000004  5.049099999999999 
H  -1.6754000000000002  -0.35829999999999984  5.614699999999999 
H  -2.9016  -1.2630999999999997  5.1233 
C  -3.5632  -0.42719999999999914  -2.3568 
H  -2.9721  -1.2008999999999999  -2.2462999999999997 
H  -3.3547000000000002  0.024499999999999744  -3.2011 
H  -4.4956000000000005  -0.7261999999999995  -2.3684000000000003 
C  -0.7758000000000003  -1.5891000000000002  3.4924000000000004 
H  -0.10070000000000023  -1.4646999999999997  4.191599999999999 
H  -0.34360000000000035  -1.5606999999999998  2.6134999999999997 
H  -1.2141000000000002  -2.4574  3.6128000000000005 
C  4.7246999999999995  -0.1446000000000005  0.1398999999999999 
H  5.2848  -0.7085999999999997  0.661 
