61
unq_CSD-RAWRIQ01-02-a
N  1.8963999999999999  0.5529000000000002  0.2038000000000011 
N  0.7905000000000001  -1.8102  0.7200999999999986 
N  4.075200000000001  -3.2251999999999996  0.9533999999999985 
C  2.4183  1.8945000000000007  0.22449999999999903 
C  2.6515  2.5919000000000008  -0.969100000000001 
C  3.1494999999999997  3.872300000000001  -0.9113000000000007 
C  3.4667999999999997  4.4575  0.29879999999999995 
C  3.2648999999999995  3.7561  1.4738000000000007 
C  2.7142  2.479700000000001  1.467600000000001 
C  2.473  1.7457000000000003  2.7622999999999998 
C  2.4152  1.9333  -2.3072 
C  4.240600000000001  -0.26259999999999994  0.5610999999999997 
C  2.7395  -0.4603999999999999  0.559000000000001 
C  2.1968  -1.6979999999999995  0.8232999999999997 
C  2.8169999999999997  -2.9988999999999995  1.0257000000000005 
C  1.6242  -3.9081999999999995  1.3994 
C  1.5274  -5.3171  0.9266000000000005 
C  0.32040000000000013  -5.835  0.6560999999999986 
C  -0.8769  -5.0256  0.6890999999999998 
C  -0.8699  -3.6614999999999998  0.8067999999999991 
C  0.45030000000000003  -3.0620999999999996  0.9698999999999991 
C  -2.095  -2.8377999999999997  0.6725999999999992 
C  1.6296999999999997  -3.9795999999999996  2.972999999999999 
C  4.648300000000001  -4.505599999999999  1.1082999999999998 
C  5.2755  -4.8359  2.326599999999999 
C  5.8901  -6.0653999999999995  2.4464000000000006 
C  5.937  -6.9666  1.3871000000000002 
C  5.3707  -6.5874  0.1769999999999996 
C  4.7481  -5.3762  0.005599999999997607 
C  4.1973  -4.9501  -1.3367000000000004 
C  5.2744  -3.8673999999999995  3.4726999999999997 
H  3.2784999999999997  4.361600000000001  -1.7166000000000015 
H  3.8219  5.3383  0.323599999999999 
H  3.5082  4.153700000000001  2.2997999999999976 
H  2.6161  2.3369999999999997  3.491299999999999 
H  3.0718  1.0117000000000003  2.8263999999999996 
H  1.5783999999999998  1.4276  2.7829999999999977 
H  3.1283  1.3359000000000005  -2.4951000000000008 
H  1.5964  1.4521000000000006  -2.282400000000001 
H  2.3710999999999998  2.5980000000000008  -2.9845000000000006 
H  4.437600000000001  0.6671000000000005  0.5487000000000002 
H  4.611000000000001  -0.6540999999999997  1.3436999999999983 
H  4.6158  -0.6764999999999999  -0.20919999999999916 
H  2.3115  -5.8431999999999995  0.8170999999999999 
H  0.2502  -6.7566  0.4372000000000007 
H  -1.7165  -5.465999999999999  0.6270999999999987 
H  -2.0454  -2.324  -0.12450000000000117 
H  -2.8557  -3.4046  0.6354000000000006 
H  -2.1696  -2.2546999999999997  1.420099999999998 
H  0.8257  -4.3873999999999995  3.2744999999999997 
H  1.6921  -3.1028999999999995  3.330199999999998 
H  2.3741  -4.493399999999999  3.264099999999999 
H  6.2922  -6.303999999999999  3.2744999999999997 
H  6.3453  -7.818899999999999  1.4902999999999977 
H  5.4156  -7.1868  -0.5581999999999994 
H  4.5612  -4.103999999999999  -1.5741000000000014 
H  3.2511  -4.8849  -1.2850000000000001 
H  4.4347  -5.5924  -1.9954 
H  4.4371  -3.7471999999999994  3.8195999999999977 
H  5.6048  -2.9988999999999995  3.121600000000001 
H  5.906000000000001  -4.1427  4.1251999999999995 
