53
unq_CSD-REJWIP-02-a
N  0.246  1.7541000000000002  -0.9581 
N  -1.7349  0.9027000000000003  -0.5084 
Si  -1.8625  4.4915  -0.0743999999999998 
C  -1.0757  1.9413  -1.0173999999999999 
C  -1.7103000000000002  3.2183  -1.4832999999999998 
H  -2.5934  3.0259  -1.8373 
H  -1.1774  3.5970000000000004  -2.1999999999999997 
C  -3.6757  4.7639000000000005  0.28690000000000015 
H  -3.7698  5.445799999999999  0.9546000000000001 
H  -4.0639  3.9457000000000004  0.6071 
H  -4.1244  5.037999999999999  -0.5160999999999998 
C  -1.0961  6.104299999999999  -0.6095999999999999 
H  -1.5764  6.451200000000001  -1.3655999999999997 
H  -0.17990000000000017  5.9567000000000005  -0.8534999999999999 
H  -1.1391  6.734000000000001  0.11350000000000016 
C  -1.0159  3.8529  1.4655000000000005 
H  -0.08539999999999992  3.705  1.282 
H  -1.4242000000000001  3.0262000000000002  1.7353000000000005 
H  -1.1037000000000001  4.4986  2.1701000000000006 
C  1.2378999999999998  2.7030000000000003  -1.4558999999999997 
H  0.8874999999999997  3.6115000000000004  -1.3453999999999997 
C  1.5408  2.4705000000000004  -2.9356 
H  0.7389000000000001  2.6336000000000004  -3.4558 
H  1.7997  1.5456000000000003  -3.0679 
C  2.6600999999999995  3.3840000000000003  -3.4385999999999997 
H  2.8657999999999997  3.1628  -4.3607 
H  2.3604  4.3057  -3.4104 
C  3.9160999999999997  3.237  -2.5937 
H  4.5846  3.8691000000000004  -2.8983999999999996 
H  4.2759  2.343  -2.7053 
C  3.6215999999999995  3.4833  -1.1214999999999997 
H  3.3574999999999995  4.4084  -0.9962 
H  4.424199999999999  3.3269  -0.5999999999999996 
C  2.5048999999999997  2.5629999999999997  -0.6241999999999996 
H  2.8108999999999997  1.6432000000000002  -0.6604999999999999 
H  2.3055  2.7757000000000005  0.3014999999999999 
C  -3.1832000000000003  0.7568999999999999  -0.4201999999999999 
H  -3.6063  1.5038  -0.8937999999999997 
C  -3.6165000000000003  -0.5505999999999998  -1.0755999999999997 
H  -3.1642  -1.2900999999999998  -0.6402999999999999 
H  -3.3487  -0.5444999999999998  -2.0086 
C  -5.1287  -0.7584  -0.9852999999999996 
H  -5.5794999999999995  -0.06109999999999971  -1.4865 
H  -5.3605  -1.6119999999999999  -1.384 
C  -5.6048  -0.7294999999999998  0.4615 
H  -6.572800000000001  -0.7867999999999999  0.4828000000000001 
H  -5.2471  -1.4981  0.9328000000000003 
C  -5.1581  0.5453999999999999  1.1631 
H  -5.3965  0.4923000000000002  2.1013 
H  -5.6269  1.3018  0.7782999999999998 
C  -3.6429  0.7719  1.037 
H  -3.4130000000000003  1.6261999999999999  1.4348 
H  -3.1743  0.07889999999999997  1.5271 
