25
unq_CSD-REMBER-02-a
N  -0.19640000000000057  -2.0196000000000005  0.3308 
N  -1.5799000000000003  -0.5660000000000003  1.1525000000000016 
C  0.3216999999999999  -3.2138000000000004  -0.005299999999998306 
C  -0.307500000000001  -4.3660000000000005  0.430200000000001 
H  0.06049999999999933  -5.2090000000000005  0.23510000000000097 
C  -1.4808000000000003  -4.2715000000000005  1.1526000000000014 
H  -1.9148000000000005  -5.0594  1.4260000000000002 
C  -2.0294  -3.0549000000000004  1.4815000000000005 
H  -2.8316  -2.9967000000000006  1.9679000000000002 
C  -1.3445  -1.9042000000000003  1.0631000000000004 
C  -2.6682000000000006  0.07139999999999969  1.745000000000001 
C  -3.4611  -0.4783000000000004  2.7566000000000006 
H  -3.2571000000000003  -1.3297000000000003  3.0996000000000006 
C  -4.5468  0.2234999999999996  3.2559000000000005 
H  -5.0747  -0.16170000000000062  3.9314 
C  -4.8643  1.4723999999999995  2.782 
H  -5.611  1.9339999999999993  3.118500000000001 
C  -4.0785  2.0408  1.8092000000000006 
H  -4.2805  2.9019999999999992  1.4878 
C  -2.9906000000000006  1.3554999999999993  1.2978000000000005 
H  -2.4583000000000004  1.7605999999999993  0.6371000000000002 
C  1.5534  -3.2090000000000005  -0.8511999999999986 
H  2.2295999999999996  -2.6535  -0.4327999999999985 
H  1.3407  -2.8556000000000004  -1.728299999999999 
H  1.8886000000000003  -4.1143  -0.9393999999999991 
