77
unq_CSD-RERVES-02-b
N  -2.3049  0.23429999999999998  -0.38370000000000015 
N  -1.2999  1.7338  0.9297999999999997 
C  -3.8764  -3.3156  1.1953999999999998 
H  -3.726  -3.526  2.1184999999999996 
H  -3.1808  -3.7036  0.6595 
H  -4.7263  -3.6683  0.9198999999999997 
C  -3.8728  -1.8058  1.0110999999999999 
H  -2.9793  -1.48  1.2473999999999998 
C  -4.867  -1.2006000000000001  2.0112 
H  -5.7423  -1.5612  1.8512 
H  -4.888999999999999  -0.24720000000000003  1.9046999999999996 
H  -4.5921  -1.4159  2.9064 
C  -4.162  -1.367  -0.39570000000000016 
C  -5.1983999999999995  -1.9888000000000001  -1.0632000000000001 
H  -5.6975999999999996  -2.6441999999999997  -0.6328000000000003 
C  -5.4985  -1.6415  -2.3600000000000003 
H  -6.1925  -2.0713999999999997  -2.8061000000000003 
C  -4.789899999999999  -0.6828  -2.9868 
H  -5.0085  -0.46590000000000004  -3.864 
C  -3.745  -0.0069  -2.3696 
C  -3.4112  -0.3625  -1.0560000000000003 
C  -2.1013  0.4132  -4.2046 
H  -1.4684999999999997  -0.1713  -3.7812 
H  -1.6322999999999999  1.1027  -4.6799 
H  -2.6379  -0.0915  -4.8222000000000005 
C  -3.0015  1.0433  -3.1447000000000003 
H  -2.4368999999999996  1.5452  -2.5211 
C  -3.9632  2.0395000000000003  -3.8338 
H  -4.390499999999999  1.609  -4.578900000000001 
H  -3.4669  2.7998000000000003  -4.147 
H  -4.6293  2.3284000000000002  -3.2067 
C  -2.4267  1.3573  0.3388 
C  1.7563000000000004  3.7510000000000003  0.3005 
H  2.2085999999999997  4.2334000000000005  0.9960999999999998 
H  2.1397000000000004  3.9783000000000004  -0.5491000000000001 
H  1.8510999999999997  2.8072000000000004  0.4522999999999997 
C  0.2836000000000003  4.117  0.3052999999999999 
H  -0.16469999999999985  3.5428  -0.3493000000000004 
C  0.11969999999999992  5.5603  -0.1636000000000002 
H  -0.7866  5.8420000000000005  -0.02100000000000035 
H  0.3287  5.617100000000001  -1.0994000000000002 
H  0.7138999999999998  6.1273  0.33189999999999964 
C  -0.3658999999999999  3.8654  1.65 
C  -0.09959999999999969  4.7617  2.6595999999999997 
H  0.4770000000000003  5.4726  2.4961999999999995 
C  -0.6743999999999999  4.6286000000000005  3.9133 
H  -0.4945999999999997  5.2477  4.583399999999999 
C  -1.4926999999999997  3.5909000000000004  4.1478 
H  -1.8778  3.5034  4.9902 
C  -1.7854999999999999  2.6384000000000003  3.174 
C  -1.2022999999999997  2.7673  1.8939999999999997 
C  -2.6567999999999996  1.4509  3.5544 
H  -2.8415999999999997  0.9292  2.7453 
C  -1.9349999999999998  0.5504  4.552099999999999 
H  -1.1214999999999997  0.2264  4.159800000000001 
H  -2.4995  -0.19110000000000002  4.7798 
H  -1.7305  1.0528  5.3446 
C  -3.9884999999999997  1.9042999999999999  4.1526 
H  -3.8302  2.3386  4.994299999999999 
H  -4.5555  1.1415  4.2882 
H  -4.4168  2.5185000000000004  3.5517 
C  -3.733  2.1226000000000003  0.4249999999999998 
H  -4.0293  2.0274  1.3438999999999997 
H  -4.3636  1.6204  -0.11370000000000013 
C  -5.8636  4.0234  -0.41480000000000006 
H  -6.3698999999999995  3.6783  0.32389999999999963 
H  -6.0443999999999996  3.5007  -1.1993000000000003 
H  -6.1118  4.9369000000000005  -0.5744000000000002 
C  -3.0437  4.5163  -1.4699000000000002 
H  -2.9508  5.4709  -1.4338000000000002 
H  -3.495  4.2694  -2.281 
H  -2.1742999999999997  4.1092  -1.4519000000000002 
C  -3.7426  5.0591  1.4537999999999998 
H  -2.8019  5.1125  1.6358000000000001 
H  -4.1981  4.7054  2.2209999999999996 
H  -4.0812  5.9349  1.2553999999999998 
Si  -4.0294  3.9344  -0.012600000000000389 
