37
unq_CSD-RIKYAO-02-a
N  1.1539  1.2533000000000003  -1.2163 
N  1.6973  -0.4865999999999997  0.7139000000000002 
C  1.6194  2.9222  -2.8403 
H  1.3181  3.484800000000001  -3.5165 
C  3.3598  2.0646000000000004  -1.4814000000000003 
H  4.2539  2.0514  -1.2248999999999999 
C  2.4446  1.2219000000000007  -0.8625000000000003 
C  0.7563  2.0853  -2.19 
H  -0.1417  2.0935000000000006  -2.4312 
C  2.9426  2.913900000000001  -2.4722 
H  3.5491  3.4799000000000007  -2.8918 
C  2.8526  0.23460000000000036  0.21130000000000004 
H  3.2389  0.7419000000000002  0.9560999999999997 
C  1.9039  -0.20819999999999972  3.1514 
C  1.8011  -2.4265  2.1854 
C  1.8793  -2.9568999999999996  3.4633 
H  1.8364  -3.8789  3.5738999999999996 
C  2.0129  -0.7806999999999995  4.4064 
H  2.0839  -0.23299999999999965  5.1541 
C  1.7565  1.2847000000000008  3.0445999999999995 
H  1.4975  1.6424000000000003  3.8972 
H  1.0832  1.4946000000000002  2.3923 
H  2.5933  1.6705000000000005  2.7757 
C  1.686  -3.3410999999999995  1.0018999999999996 
H  0.9397  -3.0725999999999996  0.46209999999999996 
H  1.5531  -4.2424  1.3061000000000003 
H  2.491  -3.2939999999999996  0.4822000000000002 
C  1.8332  -1.0277999999999996  2.0032 
C  2.0181  -2.1554999999999995  4.5676000000000005 
H  2.1144  -2.5305999999999997  5.4125 
C  3.9424  -0.7154999999999996  -0.33130000000000015 
H  4.7471  -0.20239999999999947  -0.5009999999999999 
H  4.1499  -1.3730999999999995  0.3505999999999996 
C  3.5456  -1.4424999999999994  -1.6073 
H  2.6829  -1.8464999999999994  -1.4909 
H  4.1948  -2.1224999999999996  -1.8028 
H  3.5115  -0.8153999999999995  -2.334 
