25
unq_CSD-RIKYIW-02-a
N  0.3545999999999996  1.4489999999999998  -1.2254999999999998 
N  1.9698000000000002  -0.49400000000000155  -0.35399999999999965 
C  -0.4649000000000001  2.5038  -1.5015 
C  -1.8408000000000002  2.4071  -1.1984 
H  -2.1681  1.6245999999999992  -0.7912999999999997 
C  -2.7089  3.4265999999999988  -1.4853 
H  -3.6228000000000002  3.3247  -1.2917 
C  -2.2625  4.5997  -2.0537 
H  -2.862  5.301499999999999  -2.2333 
C  -0.9452000000000003  4.728199999999999  -2.3525 
H  -0.6354000000000002  5.530499999999998  -2.7319 
C  -0.04870000000000019  3.7034000000000002  -2.1102 
H  0.8524000000000003  3.8092999999999986  -2.3552999999999997 
C  1.7424999999999997  1.5623999999999985  -1.5978999999999997 
H  2.1118999999999994  2.3819999999999997  -1.2079999999999997 
H  1.8056999999999999  1.6391999999999989  -2.5732999999999997 
C  2.5620000000000003  0.3984999999999985  -1.1488 
C  3.8865  0.2554999999999996  -1.5274999999999999 
H  4.301799999999999  0.8989999999999991  -2.0728999999999997 
C  4.585  -0.8527000000000005  -1.0865 
H  5.4834000000000005  -0.9758000000000013  -1.3335999999999997 
C  3.9645  -1.766300000000001  -0.29259999999999975 
H  4.421  -2.5329000000000015  0.0038000000000000256 
C  2.6692  -1.5478000000000005  0.06830000000000025 
H  2.2512  -2.1675000000000004  0.6366999999999998 
