42
unq_CSD-RISNOZ-02-a
N  1.1519000000000004  -1.6202999999999994  -0.5303000000000004 
N  1.694  0.44819999999999993  -1.0584000000000007 
N  3.1864  -1.275199999999999  -1.7444000000000006 
H  3.8661000000000003  -0.7489999999999988  -1.7490000000000006 
C  1.4367  -2.908999999999999  0.005799999999999805 
C  0.7118000000000002  -3.9956999999999994  -0.47470000000000034 
C  0.9708000000000006  -5.2501  0.06259999999999977 
H  0.5095000000000001  -5.989799999999999  -0.2611000000000008 
C  1.8852000000000002  -5.415899999999999  1.0494999999999992 
H  2.0377  -6.2661999999999995  1.3937 
C  2.5891  -4.354099999999999  1.5469999999999997 
H  3.2191  -4.493199999999999  2.2170999999999994 
C  2.3631  -3.042399999999999  1.0494999999999992 
C  3.0615000000000006  -1.8680999999999992  1.6514999999999995 
H  3.6507000000000005  -2.169299999999999  2.3465999999999996 
H  3.5696000000000003  -1.4162999999999997  0.9733999999999989 
H  2.4123  -1.263799999999999  2.0195 
C  -0.2974999999999999  -3.8278999999999996  -1.5695000000000006 
H  -0.3483999999999998  -2.903299999999999  -1.8183000000000007 
H  -0.03299999999999992  -4.350299999999999  -2.3305000000000007 
H  -1.1568  -4.125299999999999  -1.2606000000000002 
C  2.0572  -0.8214999999999995  -1.1368 
C  3.3538000000000006  -2.5810999999999993  -2.394100000000001 
H  2.6460999999999997  -3.1834999999999996  -2.0829000000000004 
C  4.685300000000001  -3.1739999999999995  -2.0420000000000007 
H  4.7795  -4.026199999999999  -2.4736000000000002 
H  5.3851  -2.5867999999999993  -2.3362000000000007 
H  4.7418000000000005  -3.2902999999999993  -1.0902000000000003 
C  3.2333  -2.4170999999999996  -3.8956000000000004 
H  3.3425000000000002  -3.2711999999999994  -4.3203000000000005 
H  2.3674999999999997  -2.062499999999999  -4.110200000000001 
H  3.9122000000000003  -1.8165999999999993  -4.2079 
C  2.2996  1.5025000000000013  -1.9046000000000003 
H  2.6246  1.0869  -2.7303000000000006 
C  1.2115999999999998  2.5052000000000003  -2.2657000000000007 
H  1.585  3.1973000000000003  -2.8155 
H  0.5114999999999998  2.0572  -2.7473 
H  0.8531000000000004  2.8903  -1.4639000000000006 
C  3.4506000000000006  2.1888000000000005  -1.2379000000000007 
H  3.806  2.8598  -1.8239 
H  3.1491  2.6006  -0.4247000000000005 
H  4.133  1.5444000000000013  -1.0357000000000003 
