31
unq_CSD-NECYEA-02-a
N  -1.7328999999999999  -1.0088  -0.2023999999999999 
N  -0.36609999999999987  -0.5225999999999997  1.8889999999999993 
N  0.26180000000000003  -0.24469999999999992  3.067 
N  -4.0366  -2.533  -0.2702 
C  -2.351  -1.2599999999999998  -1.3672000000000004 
H  -2.0046999999999997  -0.9219999999999997  -2.1623 
C  -3.5431  -2.0467999999999997  -1.3796 
C  -3.398  -2.3139  0.7989999999999995 
H  -3.7288  -2.7079999999999997  1.5724999999999998 
C  -2.2464  -1.5392000000000001  0.9284999999999997 
C  -1.4988  -1.2318999999999996  2.1241000000000003 
C  -1.6006  -1.4041999999999994  3.470699999999999 
H  -2.2779  -1.8503999999999996  3.9237 
C  -0.5045999999999999  -0.7856999999999994  4.025399999999999 
C  -0.09030000000000005  -0.5933999999999999  5.4613 
C  -0.8786  -1.5004  6.3796 
H  -0.6576  -2.4154999999999998  6.191599999999999 
H  -1.8164  -1.3614999999999995  6.241 
H  -0.6568999999999999  -1.2999999999999998  7.2948 
C  1.3702  -0.7523  5.6647 
H  1.6291000000000002  -1.654  5.4582999999999995 
H  1.5925000000000002  -0.5572999999999997  6.5799 
H  1.8437999999999999  -0.14590000000000014  5.0885 
C  -0.40569999999999995  0.8280000000000003  5.8835 
H  0.21240000000000014  1.4318  5.470599999999999 
H  -0.3365  0.9014000000000006  6.838799999999999 
H  -1.3012  1.0510000000000002  5.612299999999999 
C  -4.1983999999999995  -2.2912  -2.7046 
H  -4.984  -2.8295999999999997  -2.5783000000000005 
H  -3.5871  -2.7508  -3.2839 
H  -4.445399999999999  -1.4523000000000001  -3.099 
