52
unq_CSD-NEXCOL-02-a
N  -1.736600000000001  -1.4250000000000003  -1.1393999999999997 
N  -2.1915000000000004  -0.8129  0.9524999999999997 
N  -3.8408000000000007  -2.1878  -0.18189999999999973 
C  -2.6030000000000006  -1.4613  -0.11679999999999957 
C  -1.8591000000000015  -2.2756  -2.3238 
H  -2.6743000000000006  -2.8124000000000002  -2.2554 
C  -0.6353000000000009  -3.2084  -2.3688 
H  -0.6942000000000004  -3.7774  -3.1395 
H  0.1664999999999992  -2.6828000000000003  -2.4189 
H  -0.6147000000000009  -3.7467  -1.5730999999999997 
C  -1.9263000000000012  -1.4041000000000001  -3.5899 
H  -2.0063000000000013  -1.9688  -4.3622 
H  -2.6869000000000005  -0.8226  -3.5397999999999996 
H  -1.1248000000000005  -0.8784000000000001  -3.6599 
C  -3.0463000000000005  -0.6135000000000002  2.0901000000000005 
H  -3.8999000000000006  -1.0681000000000003  1.9400000000000004 
C  -2.4178000000000006  -1.1224000000000003  3.3696 
H  -3.0199000000000007  -0.9704000000000002  4.1019 
H  -2.243800000000001  -2.0623  3.2879000000000005 
H  -1.5955000000000013  -0.6567000000000003  3.5297 
C  -3.2916000000000007  0.9092000000000002  2.2569 
H  -3.861700000000001  1.0583999999999998  3.0143000000000004 
H  -2.454300000000001  1.3553999999999995  2.3954000000000004 
H  -3.712200000000001  1.2535999999999996  1.4661999999999997 
C  -5.047900000000001  -1.5394  -0.7790999999999997 
C  -5.5756000000000006  -2.3523  -1.9318 
H  -4.961600000000001  -2.3216  -2.6791 
H  -6.436400000000001  -2.0121  -2.222 
C  -5.7170000000000005  -3.8136  -1.3963 
H  -6.054800000000001  -4.3644  -2.1203 
H  -6.396400000000001  -3.8108  -0.7006999999999999 
C  -4.4407000000000005  -4.5094  -0.8173999999999997 
H  -4.661200000000001  -5.3893  -0.4704999999999999 
H  -3.766700000000001  -4.607  -1.5063999999999997 
C  -3.922900000000001  -3.5947  0.3201999999999998 
C  -4.700100000000001  -0.13240000000000007  -1.2010999999999998 
H  -5.471100000000001  0.28729999999999967  -1.5848 
H  -4.411600000000001  0.36819999999999986  -0.43379999999999974 
H  -3.9940000000000007  -0.16030000000000033  -1.85 
C  -6.1888000000000005  -1.4822000000000002  0.2602000000000002 
H  -6.960000000000001  -1.0653000000000001  -0.13349999999999973 
H  -5.902800000000001  -0.9732000000000003  1.0225 
C  -2.606300000000001  -4.0451  0.8490000000000002 
H  -2.681800000000001  -4.9486  1.1660000000000004 
H  -1.9503000000000004  -4.0032  0.1517999999999997 
H  -2.3420000000000005  -3.4734000000000003  1.5747 
C  -4.945700000000001  -3.7146  1.4179000000000004 
H  -4.605100000000001  -3.3005  2.2553 
H  -5.148300000000001  -4.6516  1.6280999999999999 
C  -6.1526000000000005  -2.9491  0.7839999999999998 
H  -6.864400000000001  -3.0090000000000003  1.4295 
H  -6.427900000000001  -3.4929  0.025000000000000355 
