40
unq_CSD-OPACOY-02-b
N  1.1952000000000007  1.2994000000000003  -0.9196 
N  -1.1951  1.2994000000000003  0.9195999999999995 
N  1.2945000000000002  -0.7065999999999999  -4.9306 
C  2.0382000000000007  3.5772000000000004  -1.335 
H  2.1537999999999995  3.3898  -2.2691 
H  2.8815999999999997  3.4919000000000002  -0.8834 
H  1.7069  4.472600000000001  -1.2267000000000001 
C  1.043400000000001  2.5943000000000005  -0.7399 
C  0.0  3.1659999999999995  0.0 
H  0.0  4.0949  0.0 
C  2.0515999999999996  -0.22079999999999966  -2.6837 
C  1.5819  0.17070000000000007  -3.9221000000000004 
H  1.4522000000000004  1.0781999999999998  -4.0782 
C  1.4927000000000001  -2.0233  -4.6901 
H  1.3135000000000003  -2.6361  -5.3668000000000005 
C  1.9447999999999999  -2.4794  -3.4958 
H  2.0628  -3.3914  -3.3579000000000003 
C  2.226  -1.5838  -2.49 
H  2.5367000000000006  -1.896  -1.6712000000000002 
C  2.3799  0.7812000000000001  -1.6163 
H  2.9699999999999998  0.367  -0.9678 
H  2.8578  1.5228000000000002  -2.0187 
N  -1.2944999999999993  -0.7065999999999999  4.9306 
C  -2.0381  3.5772000000000004  1.3351000000000002 
H  -2.1536999999999997  3.3898  2.2692 
H  -2.8815  3.4919000000000002  0.8835000000000002 
H  -1.7067999999999994  4.472600000000001  1.2266999999999997 
C  -1.0433999999999992  2.5943000000000005  0.7399999999999998 
C  -2.0515  -0.22079999999999966  2.6836999999999995 
C  -1.5817999999999994  0.17070000000000007  3.9221 
H  -1.4520999999999997  1.0781999999999998  4.0783000000000005 
C  -1.4925999999999995  -2.0233  4.690200000000001 
H  -1.3133999999999997  -2.6361  5.366900000000001 
C  -1.9447  -2.4794  3.4959000000000002 
H  -2.0626999999999995  -3.3914  3.358 
C  -2.226  -1.5838  2.4899999999999998 
H  -2.5366  -1.896  1.6713 
C  -2.3797999999999995  0.7812000000000001  1.6164 
H  -2.9699  0.367  0.9678999999999998 
H  -2.8576999999999995  1.5228000000000002  2.0188 
