33
unq_CSD-AKAFIC-02-a
N  1.5544000000000011  -1.2700000000000014  -1.5735000000000006 
N  1.5584000000000007  -0.8725000000000005  1.4124999999999996 
C  1.4730000000000008  -0.8663000000000007  -2.8723 
H  0.8055000000000003  -0.23130000000000095  -3.0998 
C  2.2924000000000007  -1.3176000000000005  -3.8715 
H  2.202  -0.9995000000000012  -4.7617 
C  3.2643000000000004  -2.2584  -3.5389000000000004 
H  3.854700000000001  -2.593400000000001  -4.202800000000001 
C  3.3602000000000007  -2.6914  -2.2554000000000003 
H  4.015300000000002  -3.3385  -2.0227000000000004 
C  2.4963000000000015  -2.1865000000000006  -1.2732000000000006 
C  2.621500000000001  -2.6874000000000002  0.13319999999999954 
H  3.4682000000000013  -2.339600000000001  0.5101999999999993 
H  2.6960000000000015  -3.674100000000001  0.10349999999999948 
C  1.4769000000000005  -2.318100000000001  1.0958999999999994 
H  0.6094000000000008  -2.4842000000000013  0.6252999999999993 
C  1.5158000000000005  -3.1984000000000012  2.3316999999999997 
C  0.8315000000000001  -4.4015  2.4014999999999995 
H  0.22360000000000113  -4.643000000000001  1.7134999999999998 
C  1.0378000000000007  -5.2598  3.4917999999999996 
H  0.5887000000000011  -6.0963  3.5389 
C  1.9056000000000015  -4.870900000000001  4.500499999999999 
H  2.0523000000000007  -5.448100000000001  5.2399000000000004 
C  2.551  -3.6714  4.444899999999999 
H  3.1346000000000007  -3.427200000000001  5.154499999999999 
C  2.3762000000000008  -2.7913000000000014  3.3721999999999994 
C  2.955400000000001  -1.4812000000000012  3.2931 
H  3.6763000000000012  -1.2479000000000013  3.8658 
C  2.4762000000000004  -0.5655999999999999  2.3967 
C  2.8546000000000014  0.8887999999999998  2.4739999999999993 
H  3.347900000000001  1.0541999999999998  3.3049 
H  2.0426  1.439  2.4619 
H  3.4183000000000003  1.1211000000000002  1.7060999999999993 
