32
unq_CSD-AKOVII-02-a
N  1.2702  -1.2596000000000003  1.3392000000000004 
N  1.8509000000000002  0.7504  -0.18120000000000003 
Si  2.7047999999999996  -0.4922000000000004  0.5809000000000002 
C  1.1471999999999989  -2.7227  1.3367999999999998 
H  0.24260000000000037  -2.9749000000000003  1.6165999999999996 
H  1.8002999999999991  -3.1065000000000005  1.9586000000000001 
H  1.3167999999999997  -3.0634  0.43359999999999976 
C  0.9549999999999992  -0.7579000000000002  2.6946999999999997 
H  1.089999999999999  0.2123999999999997  2.7236 
H  1.5446  -1.1892  3.3480000000000003 
H  0.021700000000000053  -0.9644000000000004  2.9106 
C  3.9707  -0.04039999999999999  1.8899000000000004 
H  3.574799999999999  0.5957999999999997  2.5214000000000003 
H  4.752  0.3675999999999995  1.4614999999999996 
H  4.2466  -0.8489000000000004  2.3702 
C  3.5279999999999996  -1.7805000000000004  -0.5062000000000002 
H  3.8219000000000003  -2.5346  0.04630000000000001 
H  4.303  -1.3825000000000003  -0.9548000000000001 
H  2.888799999999999  -2.0975  -1.1782 
C  2.381999999999999  1.9132999999999996  -0.8919999999999999 
C  2.8808999999999996  2.9597999999999995  0.1149 
H  2.1469999999999994  3.213899999999999  0.7126000000000001 
H  3.1986999999999997  3.7516  -0.36719999999999997 
H  3.6155  2.5816999999999997  0.6421000000000001 
C  3.5446999999999997  1.5251000000000001  -1.8159 
H  4.285699999999999  1.1745  -1.2788 
H  3.8457999999999997  2.3151  -2.3116 
H  3.245  0.8380000000000001  -2.4471 
C  1.2744999999999989  2.534  -1.7521 
H  0.9967999999999995  1.8929999999999998  -2.4394 
H  1.6117999999999997  3.3477999999999994  -2.1814999999999998 
H  0.5072999999999999  2.7577999999999996  -1.1849 
