52
unq_CSD-ALOGUD-02-a
N  -1.0067000000000004  0.027300000000000324  1.7180999999999997 
N  0.2961999999999989  -1.8802000000000003  0.31340000000000146 
C  -2.349500000000001  0.7725000000000009  3.391300000000001 
H  -2.7445000000000004  1.3612000000000002  4.0245999999999995 
C  -2.644  -0.5510000000000002  3.2151999999999994 
H  -3.290700000000001  -1.055299999999999  3.6965000000000003 
C  -1.347100000000001  1.0965000000000007  2.451800000000002 
H  -0.964500000000001  1.9600000000000009  2.351700000000001 
C  -1.7989999999999995  -1.0299999999999994  2.174800000000001 
C  0.9819999999999993  -3.9954  -0.1039999999999992 
H  1.5060000000000002  -4.7162999999999995  -0.43189999999999884 
C  -0.5799000000000003  -2.7662999999999993  0.934800000000001 
C  1.2302999999999997  -2.6257  -0.28639999999999866 
H  1.9656000000000002  -2.274099999999999  -0.7736999999999998 
C  -1.6257000000000001  -2.3484  1.7653999999999996 
C  -2.1362000000000005  -4.461799999999999  3.020199999999999 
H  -1.2416  -4.469799999999999  3.3428000000000004 
C  -4.7445  -4.425599999999999  2.1129999999999995 
H  -5.6431000000000004  -4.4033  1.8082999999999991 
C  -0.16329999999999956  -4.087999999999999  0.6378000000000004 
H  -0.5975999999999999  -4.888699999999999  0.904300000000001 
C  -2.5707000000000004  -3.400499999999999  2.236900000000002 
C  -3.8922000000000008  -3.383899999999999  1.8054000000000023 
H  -4.211  -2.649099999999999  1.2940000000000005 
C  -4.2959  -5.513199999999999  2.867799999999999 
C  -5.931900000000001  -7.5268  3.3004 
C  -2.9856  -5.508799999999999  3.3385 
H  -2.674200000000001  -6.2254  3.8794000000000004 
C  -5.1729  -6.617399999999999  3.1243000000000016 
C  -6.905  -8.568999999999999  3.429100000000002 
C  -7.9081  -8.685099999999998  2.4648000000000003 
H  -7.9238  -8.0824  1.7314000000000007 
C  -8.8709  -9.6588  2.5634000000000015 
H  -9.5463  -9.721599999999999  1.8989000000000011 
C  -6.9046  -9.4621  4.506800000000002 
H  -6.236000000000001  -9.3934  5.176400000000001 
C  -8.866800000000001  -10.5587  3.632100000000001 
C  -9.8632  -11.5947  3.678799999999999 
C  -7.8731  -10.4443  4.602499999999999 
H  -7.8612  -11.046299999999999  5.337 
C  -10.682400000000001  -12.4583  3.6260000000000012 
C  -11.6293  -13.5312  3.4693000000000005 
C  -11.620000000000001  -14.6456  4.279700000000002 
H  -10.9991  -14.7042  4.9969 
C  -12.566  -13.4446  2.4594000000000023 
H  -12.597900000000001  -12.671899999999999  1.907399999999999 
C  -12.5165  -15.684099999999999  4.052 
H  -12.5061  -16.4508  4.610700000000001 
C  -13.4067  -15.5994  3.0335 
H  -13.9981  -16.3238  2.8626000000000005 
C  -13.4586  -14.4819  2.2475000000000023 
H  -14.1058  -14.4169  1.5554000000000006 
