55
unq_CSD-SOKCEB-02-a
N  0.056499999999999995  -2.0505  0.22669999999999924 
N  1.5006000000000002  -0.5468999999999999  -1.3306000000000004 
N  2.2385  0.09319999999999995  -2.2211 
N  4.3861  -1.3174  -4.7292 
C  0.8996000000000002  -2.6853  -0.5175000000000001 
C  1.6584999999999999  -1.8963  -1.4626000000000001 
C  2.8758  -0.8605999999999998  -2.9654 
C  2.5373  -2.1568  -2.5122 
C  2.9855  -3.4675  -3.0772000000000004 
H  3.3144  -4.0321  -2.361700000000001 
H  3.6943  -3.3165999999999998  -3.7226 
H  2.2379  -3.9042  -3.5145999999999997 
C  1.1083999999999998  -4.1698  -0.42719999999999914 
H  0.6872999999999998  -4.5066  0.37870000000000026 
H  2.0588999999999995  -4.3606  -0.40140000000000065 
H  0.7137999999999998  -4.5995  -1.2029999999999994 
C  3.8008999999999995  -0.4354  -4.0151 
C  4.0285  1.0486  -4.1398 
H  4.6350999999999996  1.2227999999999999  -4.8769 
H  4.4151  1.3874999999999997  -3.3167 
H  3.1819999999999995  1.4926  -4.3048 
C  5.3772  -0.9592999999999998  -5.6857 
C  6.704999999999999  -0.8422000000000001  -5.2555 
C  7.6825  -0.6141000000000001  -6.2077 
H  8.5769  -0.5242999999999998  -5.9338 
C  7.3762  -0.5137  -7.5657 
H  8.0534  -0.35729999999999995  -8.1981 
C  6.059499999999999  -0.6490999999999998  -7.9643 
H  5.851  -0.5964  -8.880700000000001 
C  5.0365  -0.8597999999999999  -7.048 
C  3.6212999999999997  -0.9924  -7.4725 
H  3.5813999999999995  -1.1  -8.4347 
H  3.1304  -0.1974999999999998  -7.2143999999999995 
H  3.2272  -1.7695  -7.043699999999999 
C  7.0437  -0.9371  -3.7943 
H  7.9903  -1.125  -3.6924 
H  6.5272  -1.6504  -3.3884 
H  6.832999999999999  -0.09690000000000021  -3.3568999999999996 
C  -0.6588  -2.7102  1.2764000000000006 
C  -1.9222  -3.223  0.9939 
C  -2.6431  -3.7875  2.0465 
H  -3.4941  -4.1489  1.8787000000000003 
C  -2.1331  -3.8243  3.3184000000000005 
H  -2.6408  -4.1937  4.0182 
C  -0.8755999999999999  -3.3204  3.5694 
H  -0.5267999999999999  -3.3575  4.4412 
C  -0.11919999999999997  -2.7584999999999997  2.5541 
C  1.2556999999999998  -2.1915  2.8150999999999993 
H  1.5134999999999998  -2.3764  3.7314000000000007 
H  1.2423  -1.2328000000000001  2.668799999999999 
H  1.8937000000000002  -2.6025  2.2113999999999994 
C  -2.493  -3.1978  -0.40140000000000065 
H  -3.4459999999999997  -3.3708  -0.36410000000000053 
H  -2.0611  -3.8802  -0.9390999999999998 
H  -2.3378  -2.3259  -0.7986000000000004 
