20
unq_CSD-SOLGUV-02-a
N  -1.8073  -0.188  -0.5627 
N  0.2639  1.649  -0.891 
N  -1.8884  1.8176  -1.7024 
C  -2.4757  0.6613  -1.2734 
C  -3.8163  0.7413  -1.8144 
C  -3.9174  1.9256  -2.5649 
C  -2.7025  2.6042  -2.4988 
C  -1.9191  3.6848  -2.8797 
C  -0.6419  3.54  -2.3245 
C  -4.8548  -0.2161  -1.6371 
C  -5.0856  2.3276  -3.2847 
C  -2.3061  4.7849  -3.6971 
C  0.42  4.4521  -2.4808 
C  -0.6152  2.3082  -1.5695 
N  -5.7031  -0.9617  -1.5214 
N  -6.0332  2.6042  -3.8481 
N  -2.553  5.6688  -4.3567 
N  1.2421  5.2215  -2.643 
H  -2.3247  -1.0849  -0.2592 
H  1.2505  2.0834  -0.8234 
