51
unq_CSD-SOQBEH-02-a
N  1.6463999999999999  -0.7966  1.0026000000000002 
N  -0.7017999999999995  -1.8524  0.6059000000000001 
N  0.3498000000000001  -4.906000000000001  2.2346 
N  2.8541000000000007  -3.7711  2.5451 
C  -0.17759999999999998  -6.0947  2.7808000000000006 
C  0.4746000000000006  -7.3073999999999995  2.5395 
H  1.2070000000000007  -7.336600000000001  1.9354 
C  0.05930000000000035  -8.4657  3.1761000000000004 
H  0.516  -9.2845  3.0222 
C  -1.0256999999999996  -8.4217  4.0357 
H  -1.3114999999999997  -9.2116  4.4803 
C  -1.6864999999999997  -7.244999999999999  4.248800000000001 
H  -2.4358999999999993  -7.2212  4.830299999999999 
C  -1.2693999999999992  -6.095000000000001  3.6207 
H  -1.7434999999999992  -5.2847  3.7689 
C  -0.33729999999999905  -3.9135999999999997  1.6022000000000003 
C  -1.6499999999999995  -3.9127  1.0588000000000002 
C  -2.6815999999999995  -4.864599999999999  0.9247000000000001 
H  -2.572499999999999  -5.7375  1.2832000000000003 
C  -3.8339999999999996  -4.5296  0.2825000000000002 
H  -4.518599999999999  -5.1795  0.1766000000000001 
C  -4.019699999999999  -3.2417  -0.2227999999999999 
H  -4.8484  -3.0206  -0.6306999999999996 
C  -3.033899999999999  -2.2824  -0.1452 
H  -3.1717999999999993  -1.4148  -0.5050999999999997 
C  -1.834999999999999  -2.6143  0.4716 
C  0.20940000000000047  -2.6414999999999997  1.3016 
C  1.4804000000000013  -2.0518  1.4696000000000002 
C  3.0090000000000003  -0.48629999999999995  1.1223 
C  3.6599000000000004  0.6669999999999998  0.6989000000000001 
H  3.173300000000001  1.3925  0.3248000000000002 
C  5.0367000000000015  0.7324999999999999  0.8372000000000002 
H  5.496600000000001  1.5081000000000002  0.5422000000000002 
C  5.764900000000001  -0.32020000000000004  1.4018000000000002 
H  6.710700000000001  -0.25859999999999994  1.4696000000000002 
C  5.1053000000000015  -1.4569999999999999  1.8634 
H  5.5905000000000005  -2.1643  2.2727 
C  3.7349000000000014  -1.5399  1.7151999999999998 
C  2.7414000000000005  -2.5957  1.9890000000000003 
C  4.105500000000001  -4.2008  3.0363 
C  4.9145  -5.0192  2.2727 
H  4.6333  -5.3015  1.4102999999999999 
C  6.1493  -5.4269  2.778 
H  6.7048000000000005  -5.9933  2.2558000000000002 
C  6.569000000000001  -5.0221  4.011699999999999 
H  7.4236  -5.2826  4.333500000000001 
C  5.746500000000001  -4.234  4.792199999999999 
H  6.029300000000001  -3.9732  5.660300000000001 
C  4.5146000000000015  -3.8242  4.3208 
H  3.9488000000000003  -3.2874  4.8642 
H  1.2280000000000015  -4.646100000000001  2.2388 
