46
unq_CSD-SUMQUN-02-a
N  0.10869999999999891  -2.1906  -0.44110000000000005 
N  1.8764000000000003  -1.0029000000000003  0.24840000000000018 
C  1.4250999999999987  -4.6281  -0.4133 
H  1.8707999999999991  -5.4679  -0.4095 
C  5.2978000000000005  0.0354000000000001  1.4223000000000003 
C  2.0919999999999987  -3.4988  0.009600000000000275 
H  2.9856999999999996  -3.5525  0.3275999999999999 
C  1.4131999999999998  -2.253  -0.04159999999999986 
C  4.303700000000001  0.28109999999999946  -0.8818999999999999 
C  4.281699999999999  1.6528999999999998  -1.2234 
C  3.0564999999999998  -0.8590999999999998  1.0257999999999998 
N  4.523300000000001  -2.066  -1.5393999999999999 
C  4.1568999999999985  -1.178  3.1805 
H  4.146600000000001  -1.5338000000000003  4.060600000000001 
C  0.0887999999999991  -4.549300000000001  -0.8506 
H  -0.3769000000000009  -5.320600000000001  -1.152 
C  4.403899999999998  2.0279999999999996  -2.5646 
H  4.379699999999998  2.9499000000000004  -2.7944999999999998 
C  -0.5213999999999999  -3.3117  -0.8241 
H  -1.431000000000001  -3.2503  -1.0897999999999999 
C  6.555099999999998  0.7366000000000001  0.9552999999999998 
H  6.544299999999998  1.6673  1.2641000000000004 
H  6.594699999999998  0.7166999999999994  -0.023499999999999854 
H  7.339999999999998  0.27970000000000006  1.3226 
C  4.478399999999999  -0.6772  -1.9048 
C  4.204700000000001  -0.16659999999999986  0.5493000000000001 
C  4.062899999999999  2.7250000000000005  -0.17830000000000013 
H  4.9305  3.056399999999999  0.13560000000000016 
H  3.5632  2.3485000000000005  0.5764 
H  3.5527999999999995  3.4652000000000003  -0.5703999999999998 
C  3.072099999999999  -1.3807999999999998  2.3289000000000004 
H  2.3264999999999993  -1.8830999999999998  2.6377 
C  5.2490000000000006  -0.45420000000000016  2.7346 
H  5.974199999999998  -0.28720000000000034  3.3253999999999997 
C  4.587099999999998  -0.27000000000000046  -3.2371 
H  4.679599999999999  -0.9199000000000002  -3.923 
C  5.8286999999999995  -2.4835000000000003  -1.0194 
H  6.498199999999999  -2.4281000000000006  -1.7337 
H  5.7722999999999995  -3.4069000000000003  -0.6966000000000001 
H  6.089999999999998  -1.8956  -0.2814000000000001 
C  4.5601  1.0827  -3.5645 
H  4.6484000000000005  1.3556  -4.4698 
C  4.027899999999999  -2.9975000000000005  -2.5606999999999998 
H  3.1891  -2.6567  -2.9353 
H  3.8705  -3.8751  -2.1543 
H  4.693  -3.0827  -3.2755 
