26
unq_CSD-SUXVIQ-02-a
N  -1.4452  -0.0669000000000004  -1.6023 
N  0.5729000000000001  0.7520000000000007  -1.8828000000000003 
C  1.6536  1.2565000000000008  -2.6327000000000003 
C  1.9696  0.7334999999999994  -3.8836000000000004 
H  1.4647999999999999  0.008900000000000574  -4.2349 
C  3.4551  2.8452  -2.8821000000000003 
H  3.959  3.5748999999999995  -2.5408 
C  3.7656  2.3269  -4.1237 
H  4.479500000000001  2.6928  -4.6318 
C  3.0198  1.2668999999999997  -4.6188 
H  3.2304  0.9010999999999996  -5.4704 
C  2.4112999999999998  2.3133  -2.1180000000000003 
H  2.2195  2.6667000000000005  -1.2575000000000003 
C  -0.5967  0.4992000000000001  -2.4501 
H  -0.8026  0.6986000000000008  -3.3562000000000003 
C  -2.7917  -0.3323999999999998  -1.9000000000000001 
C  -3.5633  -1.0342000000000002  -0.9770000000000003 
H  -3.1716  -1.3142999999999994  -0.15790000000000015 
C  -3.4013  0.10139999999999993  -3.0963000000000003 
H  -2.9018  0.5989000000000004  -3.733 
C  -5.4833  -0.9209999999999994  -2.4157 
H  -6.391699999999999  -1.1305999999999994  -2.5964 
C  -4.899299999999999  -1.3331  -1.2343000000000002 
H  -5.408099999999999  -1.8204000000000002  -0.5965000000000003 
C  -4.7352  -0.1994000000000007  -3.3377000000000003 
H  -5.142099999999999  0.09130000000000038  -4.1454 
