38
unq_CSD-TALQOQ-02-a
N  1.0292999999999997  -0.9122000000000003  -1.3867000000000012 
N  -0.1614  -1.6803000000000008  1.030899999999999 
C  1.7676000000000003  -0.13260000000000005  -2.3314000000000004 
N  0.27859999999999996  -2.863600000000001  0.6756999999999991 
C  2.0577  1.9785000000000004  -3.4582000000000006 
H  1.7502999999999997  2.8560999999999996  -3.6527000000000003 
N  1.3099000000000003  -2.1946000000000003  -1.4510000000000005 
C  1.3229000000000002  1.1616  -2.609000000000001 
H  0.5192000000000001  1.4826999999999995  -2.2173999999999996 
C  3.2325000000000004  1.521799999999999  -4.0212 
H  3.7483999999999997  2.0914  -4.5796 
C  3.6563000000000003  0.21969999999999956  -3.7644 
H  4.452  -0.10300000000000065  -4.1707 
C  0.8793000000000002  -3.0634000000000006  -0.5182000000000002 
C  2.9347999999999996  -0.6082000000000001  -2.9267000000000003 
H  3.2316  -1.4947000000000008  -2.7577000000000007 
C  1.2505000000000002  -4.4838000000000005  -0.7925000000000004 
C  2.1126  -4.8116  -1.8495000000000008 
H  2.4172  -4.1290000000000004  -2.4359 
C  -1.6080999999999999  -0.3039000000000005  4.143799999999999 
H  -2.0263999999999998  0.5007000000000001  4.427099999999999 
C  2.5256000000000003  -6.1218  -2.0488 
H  3.1151000000000004  -6.3276  -2.7648 
C  2.0844  -7.127800000000001  -1.212200000000001 
H  2.3802999999999996  -8.021600000000001  -1.3386000000000013 
C  0.7942  -5.5152  0.023299999999998988 
H  0.19309999999999983  -5.322000000000001  0.7329999999999988 
C  -0.5966999999999998  -1.6234000000000002  2.3945999999999987 
C  -0.39319999999999977  -2.6627  3.3064 
H  0.017300000000000093  -3.4718  3.024799999999999 
C  -0.7938999999999998  -2.5064  4.623999999999999 
H  -0.6526000000000001  -3.2122  5.244 
C  -1.3983999999999999  -1.3328000000000007  5.0486 
H  -1.6673  -1.2347000000000001  5.9544 
C  1.2071999999999998  -6.820200000000001  -0.18839999999999968 
H  0.8841000000000001  -7.5122  0.37650000000000006 
C  -1.2065  -0.45040000000000013  2.8247 
H  -1.3496  0.25819999999999954  2.2082999999999995 
