22
unq_CSD-TALTEF-02-a
N  1.2873  1.7907  0.4815000000000005 
N  0.6965000000000003  0.17510000000000003  1.8741000000000003 
C  1.4188  1.3474000000000002  1.7516999999999996 
C  2.2253  2.0255  2.654300000000001 
C  2.8598999999999997  3.1684  2.2416 
C  2.7034000000000002  3.6277  0.9497 
C  1.9013  2.8931000000000004  0.0990000000000002 
C  0.5742000000000003  -0.5173999999999999  3.0889000000000006 
C  0.18200000000000038  0.07950000000000013  4.271800000000001 
C  0.0015000000000000568  -0.6494999999999999  5.427800000000001 
C  0.21509999999999962  -2.0177  5.427800000000001 
C  0.5460000000000003  -2.6296999999999997  4.2483 
C  0.7201000000000004  -1.8967  3.104000000000001 
H  2.3318000000000003  1.7119000000000002  3.5234000000000005 
H  3.4024  3.6372  2.8354999999999997 
H  3.1228  4.4061  0.6628000000000007 
H  1.7903000000000002  3.1867  -0.7767999999999997 
H  0.036599999999999966  0.9972000000000001  4.286900000000001 
H  -0.2637999999999998  -0.22129999999999994  6.209600000000002 
H  0.13560000000000016  -2.5111  6.213000000000001 
H  0.6565000000000003  -3.5521000000000003  4.2231000000000005 
H  0.9386999999999999  -2.3368  2.3154000000000003 
