54
unq_CSD-TATJEG-02-a
N  0.3111999999999995  2.2679  -0.6475000000000004 
N  -1.5368000000000004  0.024399999999999977  -1.4249000000000005 
C  -0.6723000000000003  2.9838000000000005  -1.1334000000000004 
C  -1.9024000000000005  2.4324000000000003  -1.5904000000000003 
H  -2.5875000000000004  3.0682  -1.7610000000000006 
C  -2.2556000000000003  1.1231  -1.8240000000000003 
C  -0.5359000000000003  4.4858  -1.3037000000000005 
H  -0.29580000000000073  4.8918  -0.44410000000000016 
H  -1.3878000000000004  4.8577  -1.6145000000000005 
H  0.16310000000000002  4.6778  -1.9634000000000005 
C  -3.5314000000000005  0.907  -2.6093 
H  -3.3223000000000003  0.45760000000000023  -3.4548000000000005 
H  -3.9518000000000004  1.7727000000000004  -2.7954000000000003 
H  -4.1456  0.35050000000000026  -2.0872 
C  1.5456999999999992  2.9960000000000004  -0.4315000000000002 
C  1.8125999999999998  3.5863000000000005  0.8079999999999998 
C  3.0116999999999994  4.2792  0.9750999999999994 
H  3.2013999999999996  4.6713000000000005  1.8199999999999994 
C  3.937199999999999  4.4153  -0.04900000000000038 
C  3.6211  3.8603000000000005  -1.2864000000000004 
H  4.232099999999999  3.9669  -2.0052000000000003 
C  2.4396999999999993  3.1542000000000003  -1.5071000000000003 
C  0.8362999999999996  3.545  1.9598999999999993 
H  1.1966999999999999  2.9771  2.673 
H  -0.018400000000000638  3.1790000000000003  1.6507999999999994 
H  0.6982999999999997  4.4526  2.3031999999999995 
C  5.2379  5.143199999999999  0.17319999999999958 
H  5.137599999999999  5.7693  0.9198999999999993 
H  5.4780999999999995  5.6385  -0.6377000000000002 
H  5.942499999999999  4.4955  0.38099999999999934 
C  2.1099999999999994  2.6496000000000004  -2.8872000000000004 
H  1.3630999999999993  3.1672000000000002  -3.2542000000000004 
H  1.859  1.7030000000000003  -2.8373000000000004 
H  2.8934999999999995  2.7497  -3.4670000000000005 
C  -2.0229000000000004  -1.2408  -1.9573000000000005 
C  -1.5536000000000003  -1.6750999999999998  -3.2025000000000006 
C  -2.0493000000000006  -2.8689999999999998  -3.7276000000000002 
H  -1.7247000000000003  -3.1765  -4.5659 
C  -3.0072  -3.6212999999999997  -3.0555000000000003 
C  -3.4577000000000004  -3.1589  -1.8249000000000004 
H  -4.1088000000000005  -3.6669  -1.3546000000000005 
C  -2.987  -1.9751999999999998  -1.2578000000000005 
C  -0.5908000000000002  -0.8454999999999999  -4.016900000000001 
H  -1.0838000000000005  -0.14040000000000008  -4.485600000000001 
H  -0.1385000000000005  -1.4181  -4.6705000000000005 
H  0.07409999999999961  -0.43920000000000003  -3.4234000000000004 
C  -3.5861000000000005  -4.862299999999999  -3.6887000000000003 
H  -4.0793  -4.6162  -4.497800000000001 
H  -4.1932  -5.2987  -3.0553000000000003 
H  -2.8605000000000005  -5.4777000000000005  -3.9222 
C  -3.5592000000000006  -1.4924  0.05489999999999995 
H  -2.8911000000000007  -1.6022999999999998  0.7629999999999999 
H  -4.358300000000001  -2.0157  0.2745999999999995 
H  -3.8009000000000004  -0.5457999999999998  -0.02200000000000024 
