61
unq_CSD-TAZFEH-02-a
N  -1.4427  -0.2957000000000001  -1.2885999999999989 
N  1.1472  0.9740000000000002  -1.2956000000000003 
C  -3.3111  -1.1312999999999995  -2.249600000000001 
C  -0.27860000000000007  0.6149000000000004  -3.277000000000001 
C  -1.3856000000000002  -0.01330000000000009  -2.6594999999999995 
C  2.0709999999999997  1.6786000000000003  -3.2745999999999995 
C  -2.5763  -0.5251999999999999  -3.2627000000000006 
C  2.3609  1.4604  -1.0577000000000005 
C  -0.35420000000000007  0.7469000000000001  -4.7758 
C  -0.9454  1.9619000000000009  -6.765499999999999 
H  -1.2711000000000001  2.7366  -7.162800000000001 
C  -0.5791000000000001  0.8925000000000001  -7.5771 
C  -2.5782  -0.9688999999999997  -1.057500000000001 
C  4.337300000000001  2.5178000000000003  -2.3322000000000003 
H  4.9109  2.067100000000001  -1.6927000000000003 
H  4.6998999999999995  2.3587  -3.2164 
C  0.061799999999999966  -0.32369999999999965  -5.5649 
C  -0.054500000000000104  -0.22360000000000024  -6.954000000000001 
H  0.23359999999999992  -0.9342999999999995  -7.4801 
C  2.9663  1.920700000000001  -2.2563999999999993 
C  -1.1794  3.1420000000000003  -4.568200000000001 
H  -1.0709  2.9537000000000004  -3.6331000000000007 
H  -2.09  3.3935000000000004  -4.7402 
H  -0.5955  3.8602999999999996  -4.8202 
C  -4.6387  -1.8561999999999994  -2.3491999999999997 
H  -5.0221  -1.9380999999999995  -1.4625000000000004 
H  -5.2471  -1.3255  -2.8870000000000005 
C  -0.8398000000000001  1.9149000000000003  -5.3690999999999995 
C  0.6485999999999998  -1.5569999999999995  -4.9582999999999995 
H  0.8638999999999999  -2.1513999999999998  -5.6196 
H  0.040999999999999925  -1.9383  -4.391400000000001 
H  1.4026  -1.3366999999999996  -4.488300000000001 
C  2.3426  2.023600000000001  -4.710700000000001 
H  1.5871  1.7717999999999998  -5.2490000000000006 
H  3.1212999999999997  1.5494000000000003  -5.0116 
H  2.4924  2.9677  -4.7911 
C  2.9407  1.5232999999999999  0.31319999999999837 
H  2.3201  1.1442000000000005  0.9406999999999996 
H  3.1109  2.4396999999999993  0.5482000000000014 
H  3.7623  1.0287000000000006  0.3374999999999986 
C  -3.0728  -0.45779999999999976  -4.6876999999999995 
H  -2.4261  0.001100000000000101  -5.2296 
H  -3.9057  0.018299999999999983  -4.7136 
H  -3.2008  -1.3464999999999998  -5.0261 
C  -4.5161  -3.2201  -2.9548000000000005 
H  -5.3824000000000005  -3.6319999999999997  -2.9936000000000007 
H  -3.9294000000000002  -3.7567  -2.417 
H  -4.1578  -3.1441999999999997  -3.8415 
C  0.9047000000000001  1.0757000000000003  -2.6735000000000007 
C  -2.9312  -1.5057  0.28999999999999915 
H  -2.2601  -1.245  0.9237000000000002 
H  -2.9787  -2.4644  0.25019999999999953 
H  -3.7831  -1.1558000000000002  0.5603000000000016 
C  -0.7278  0.9640000000000004  -9.0669 
H  -1.1023  1.8142000000000005  -9.3092 
H  -1.3094000000000001  0.2594000000000003  -9.3649 
H  0.13279999999999992  0.8638000000000003  -9.4788 
C  4.3735  3.9842000000000004  -2.0535999999999994 
H  5.277200000000001  4.2998  -2.1213999999999995 
H  4.0395  4.150799999999999  -1.1693999999999996 
H  3.8257  4.4448  -2.6956000000000007 
