52
unq_CSD-TEBTUR-02-a
N  0.9504000000000001  0.6624  -1.7894999999999968 
N  2.0671  0.333  0.05730000000000146 
C  2.0726999999999993  0.9142  -1.1268999999999991 
C  3.142899999999999  1.783  -1.5721999999999987 
C  4.0677  2.5010000000000003  -1.822099999999999 
Si  5.6333  3.4614000000000003  -1.981499999999997 
C  6.9115  2.4417999999999997  -1.1027999999999984 
H  6.626799999999999  2.2884  -0.17649999999999721 
H  7.7682  2.9176  -1.1061999999999976 
H  7.012700000000001  1.5809  -1.560299999999998 
C  6.0587  3.6504000000000003  -3.7825999999999986 
H  6.1401  2.7641999999999998  -4.193799999999998 
H  6.9077  4.1305  -3.8706999999999994 
H  5.350300000000001  4.1549  -4.233399999999998 
C  5.3956  5.1194999999999995  -1.1723 
H  4.7576  5.6493  -1.6943999999999981 
H  6.2545  5.5892  -1.1335999999999977 
H  5.0496  4.9932  -0.26489999999999725 
C  0.6272000000000002  1.3482  -3.037399999999998 
H  0.8643999999999998  2.3163  -2.947099999999999 
C  -0.8597000000000001  1.2297  -3.339699999999997 
H  -1.3757000000000001  1.6723  -2.6209999999999987 
H  -1.1142000000000003  0.2729  -3.352499999999999 
C  -1.2187000000000001  1.8675  -4.686299999999999 
H  -2.1805000000000003  1.722  -4.870399999999998 
H  -1.0606999999999998  2.8434999999999997  -4.638799999999998 
C  -0.39200000000000035  1.2776  -5.820799999999998 
H  -0.6311  0.32430000000000003  -5.943299999999999 
H  -0.5977000000000006  1.756  -6.662699999999999 
C  1.0940999999999992  1.3909  -5.5257999999999985 
H  1.3529999999999998  2.3459000000000003  -5.504399999999999 
H  1.6067999999999998  0.95  -6.248099999999999 
C  1.4421  0.7408  -4.187099999999999 
H  2.4083000000000006  0.8637  -4.0047999999999995 
H  1.2632999999999992  -0.23070000000000002  -4.239499999999998 
C  3.1491000000000007  0.496  1.0302000000000007 
H  3.4758999999999993  1.4397  0.9908999999999999 
C  4.3042  -0.4355  0.6888000000000005 
H  4.6492  -0.2151  -0.21309999999999718 
H  3.9795  -1.3705  0.6707999999999998 
C  5.4367  -0.3083  1.7123000000000026 
H  6.1465  -0.9643999999999999  1.4999000000000002 
H  5.8316  0.5979  1.6553000000000004 
C  4.929  -0.5514  3.1266 
H  4.6372  -1.4934  3.212900000000001 
H  5.6646  -0.398  3.7706000000000017 
C  3.767199999999999  0.36619999999999997  3.462200000000003 
H  4.0798000000000005  1.3055  3.4719000000000015 
H  3.421099999999999  0.1466  4.362000000000002 
C  2.648999999999999  0.211  2.4311000000000007 
H  2.2913999999999994  -0.7117  2.472200000000001 
H  1.9117999999999995  0.8341  2.649000000000001 
