38
unq_CSD-TEBVAZ-02-a
N  -1.2274  0.8174999999999999  -1.4778000000000002 
N  -1.462  -1.2482999999999995  -0.8593000000000002 
C  -1.8285  -0.33150000000000013  -1.7361000000000004 
C  -2.7828999999999997  -0.5256999999999996  -2.8082000000000003 
C  -3.5877  -0.6166  -3.6915000000000004 
Si  -4.7744  -0.6953999999999994  -5.1039 
C  -4.4537  -2.2476  -6.049 
H  -3.592  -2.1774999999999993  -6.5093000000000005 
H  -5.166600000000001  -2.3829  -6.707000000000001 
H  -4.4316  -3.0085999999999995  -5.4305 
C  -6.4995  -0.7336  -4.423100000000001 
H  -6.5166  -1.2812999999999999  -3.6102000000000003 
H  -7.1042000000000005  -1.1204999999999998  -5.091 
H  -6.7864  0.17860000000000031  -4.210000000000001 
C  -4.5462  0.8296999999999999  -6.1160000000000005 
H  -4.735600000000001  1.6178  -5.564500000000001 
H  -5.1597  0.8106  -6.8795 
H  -3.6225  0.8727  -6.439 
C  -1.3288  2.009100000000001  -2.2985 
H  -1.9341  1.8104000000000005  -3.0697000000000005 
C  -1.9333  3.1415999999999995  -1.4955000000000007 
H  -2.824  2.8801999999999994  -1.1802000000000001 
H  -2.0085  3.938900000000001  -2.059 
H  -1.3593000000000002  3.3387000000000002  -0.7254000000000005 
C  0.028299999999999992  2.396300000000001  -2.8456000000000006 
H  0.6547999999999999  2.522000000000001  -2.103 
H  -0.05020000000000002  3.2321  -3.3520000000000003 
H  0.3577  1.6862000000000004  -3.4355 
C  -1.8331  -2.651  -0.9484000000000004 
H  -2.1457  -2.8413999999999997  -1.8800000000000003 
C  -0.6532  -3.5529999999999995  -0.6386000000000003 
H  0.11719999999999997  -3.2792  -1.1791 
H  -0.8872  -4.481199999999999  -0.8495000000000008 
H  -0.4285  -3.4797999999999996  0.31269999999999953 
C  -2.9505  -2.9734999999999996  0.011699999999999378 
H  -2.6407  -2.8335  0.9311999999999996 
H  -3.2205  -3.9080999999999997  -0.10360000000000014 
H  -3.7153  -2.3876999999999997  -0.1673 
