76

Fe  0.0  0.0  0.0 
N  1.3512  -1.29273  0.0 
N  1.3512  1.29273  0.0 
C  2.67413  -0.76905  -0.04166 
C  3.65537  -1.65098  -0.78926 
C  3.40733  -2.97039  -0.87953 
C  2.13765  -3.53227  -0.36335 
C  1.15503  -2.71001  0.03238 
C  2.66278  0.71601  -0.30584 
C  1.29806  2.7116  -0.07484 
C  1.90557  3.46428  0.97973 
C  1.99111  4.85899  0.85925 
C  1.4938  5.5054  -0.26472 
C  0.91101  4.77909  -1.30159 
C  0.81785  3.37416  -1.25092 
C  2.47529  2.7871  2.23631 
C  1.76366  3.28844  3.49664 
C  3.99531  2.99782  2.37312 
C  0.31645  2.61096  -2.49755 
C  -1.16202  2.84343  -2.83222 
C  1.0716  3.02903  -3.76852 
H  4.5763  -1.24863  -1.20064 
H  4.12242  -3.63712  -1.35354 
H  1.97174  -4.60579  -0.37334 
H  0.21367  -3.1483  0.33064 
H  2.857  0.91067  -1.38677 
H  3.49149  1.15828  0.26398 
H  2.4571  5.45325  1.63596 
H  1.58489  6.58088  -0.34352 
H  0.57741  5.32322  -2.1713 
H  2.30004  1.69279  2.19697 
H  2.13041  2.73487  4.38771 
H  1.95413  4.37023  3.65794 
H  0.66994  3.12383  3.40327 
H  4.2456  4.0674  2.52586 
H  4.3795  2.41922  3.24212 
H  4.53674  2.64693  1.47233 
H  0.48554  1.52101  -2.35001 
H  -1.84261  2.48345  -2.10576 
H  -1.39326  3.918  -2.93474 
H  -1.44669  2.26715  -3.73631 
H  0.80773  4.07471  -4.04331 
H  2.16831  2.94327  -3.66213 
H  0.74164  2.38713  -4.61628 
C  -2.80197  0.00626  -0.24087 
C  -4.66891  -1.25591  0.86621 
H  -5.03996  -1.28468  1.9089 
H  -4.00956  -2.13906  0.77873 
C  -5.82427  -1.47306  -0.09318 
C  -5.64531  -1.59385  -1.48529 
H  -4.65849  -1.50272  -1.92377 
C  -6.74218  -1.86867  -2.31651 
H  -6.60257  -1.97685  -3.38422 
C  -8.01584  -2.02388  -1.76647 
H  -8.86349  -2.24225  -2.40196 
C  -8.19294  -1.90506  -0.39652 
H  -9.18381  -2.03538  0.0458 
C  -7.11478  -1.62846  0.44078 
H  -7.27564  -1.56861  1.51114 
C  -4.71616  1.25832  0.83032 
H  -4.07085  2.11265  1.12705 
H  -5.41334  1.12788  1.67826 
C  -5.51352  1.67305  -0.40171 
C  -4.89358  2.23805  -1.52693 
H  -3.8388  2.37421  -1.5458 
C  -5.64598  2.6747  -2.62457 
H  -5.15398  3.12273  -3.47945 
C  -7.03573  2.54647  -2.61524 
H  -7.62325  2.8821  -3.46379 
C  -7.66951  1.99375  -1.50025 
H  -8.74613  1.89473  -1.4819 
C  -6.91597  1.57213  -0.39899 
H  -7.42774  1.16296  0.45999 
S  -1.67876  1.40637  0.0 
S  -1.67876  -1.40637  0.0 
N  -3.90737  0.01356  0.727 
