66

Pd  0.0  0.0  0.0 
N  1.8353473773714895  0.021775428379018857  -4.457436607174883e-15 
O  0.3700671878791291  -2.033898881009808  2.4908077544180446e-16 
N  2.5219793232741443  -1.1710547328018999  0.07057242693174394 
N  0.19458543474938161  2.012123452630789  4.236111407348708e-15 
C  1.6153873724581822  -2.1688006476817403  0.04685019987989361 
C  2.4340505760446596  1.1632675572056634  -0.03459031259370098 
C  3.8963311003557477  1.380237227065023  -0.024223028397253727 
C  2.1804716731281992  -3.5612561636608024  0.03685974664889833 
C  1.5067541966677955  2.3083980838350406  -0.12901489507138214 
C  -0.3589471845604917  4.307954552799433  -0.3259944460544941 
H  -1.012946224098399  4.966800086061266  -0.37100810603040785 
C  1.9037821244909259  3.6187217671068312  -0.3989817811621008 
H  2.804327097039537  3.8151331101554398  -0.519558092016529 
C  3.1322220233625373  -6.154337902920174  0.04884241531674379 
H  3.449166855996678  -7.027742744446155  0.05719022134539338 
C  4.715809115289757  0.7675767850605817  -0.9553046230186567 
H  4.364976600356444  0.1371987187881543  -1.5407245919539525 
C  -0.7004955481067137  2.983485045783187  -0.09257634405073588 
H  -1.5995851352699695  2.7680665248004184  0.0027744035719386795 
C  3.509913960803429  -3.8348593189053384  0.3351172984075854 
H  4.09152088814242  -3.1344492273248656  0.5285267751235184 
C  4.46958368609441  2.2676651013201825  0.8634361972850498 
H  3.937980886924742  2.667183330716247  1.5123738971416756 
C  6.056649629979992  1.095137106012325  -1.012954777426217 
H  6.60152448444647  0.6860058559105934  -1.6468667533032542 
C  5.812531831460884  2.5748893557628847  0.8080559089247271 
H  6.179660084563483  3.1646900446114494  1.4267555316881442 
C  0.96129222160811  4.619427031600979  -0.4879300053019935 
H  1.2200838967599854  5.496962060839505  -0.655652041216847 
C  1.3449808526684264  -4.607145433404507  -0.2620599488588301 
H  0.4517594274548806  -4.443680604535072  -0.4651985844311086 
C  6.59800587691966  2.0179388296303844  -0.148582980809197 
H  7.493497517248509  2.2579857900444726  -0.2189548423527306 
C  1.8274463629959194  -5.909441931526394  -0.2634024554336905 
H  1.261401963171554  -6.615447108482542  -0.4776290586803294 
C  3.9717498444153625  -5.127825120401146  0.34853306415873736 
H  4.860030768435636  -5.3023779077916515  0.5626050717540598 
O  -2.0002618119772446  0.0  0.00026181197724461924 
N  0.00026181197724461924  0.0  -2.0002618119772446 
O  -4.018402268498604  0.02237670124994407  -0.7489789176904915 
N  -2.8027806142358704  0.021756598337100537  -1.012148348209927 
O  -5.29214926670438  0.06663017898965298  -4.466348001366463 
O  -4.478748510938529  0.07487856796032306  -6.587248865291742 
N  -4.205442929180018  0.06992734208520052  -5.383875916309595 
N  -4.780009364667483  0.06320974712647115  -3.1598427386952714 
C  -1.0373073833696078  0.038224101240946065  -2.7846011409361098 
C  -0.7948514651515419  0.05932698821553904  -4.223681321427243 
H  0.10666586989432407  0.06720073422109074  -4.524150901810433 
C  -2.414092492624846  0.046591929505197596  -2.311445011964702 
C  -1.761747497952389  0.06665565011695102  -5.143782485685139 
H  -1.5615138745364243  0.07178078603411991  -6.072360090969463 
C  -3.100693811992845  0.06844518350877474  -4.678561822249252 
C  -3.459215997558053  0.057811526484793395  -3.3065725264470234 
H  0.6705443359954548  0.016703585098410523  -2.4161716197969736 
Cl  -0.31511424155951845  -2.5923142638064136  1.808253833329339 
N  1.7929628172657895e-16  1.2469829752604858e-16  1.91 
C  0.1070253873584821  1.2496339255768232  3.9295563444747517 
H  0.15900276480639697  2.0780843427243827  4.348978385576158 
C  0.08456578248439978  1.1666756360771386  2.566818307157166 
H  0.1299090359667979  1.9526939670517376  2.071820435711706 
C  0.05318214109016822  0.10164267546320183  4.673565171367185 
H  0.10306092290103763  0.13674260739424304  5.600732988918841 
C  -0.07552647152873512  -1.0996901308675902  4.028336993533095 
H  -0.14207112155347684  -1.8937341982826728  4.507122883630116 
C  -0.10403419996555184  -1.0997345613308476  2.651086472587358 
