40

Ni  0.0  0.0  0.0 
C  1.2702916192052252  -3.137129892640634  0.26694964442825014 
H  0.36910706191447296  -3.41114041701987  -0.0019982245540122443 
H  1.4037883165494018  -3.339073366948454  1.2157906453249776 
H  1.9319046702782288  -3.6249526198302027  -0.26626214040702717 
C  3.1531979624117548  -1.0114667045414183  0.4892756516172013 
H  3.2101485749343746  -0.9930840935509662  1.4780374871198114 
H  3.757146250601085  -1.7238550253600786  0.161490591624595 
C  1.6432810643447748  -1.1338350853533186  -1.807472438685572 
H  2.208146985741105  -1.8511446163393162  -2.1895762826883884 
H  0.7519687861615907  -1.1821304106358292  -2.236796761681338 
C  3.605214807769992  0.26443407816644543  -1.5237720637134453 
H  4.031694029933703  1.0939278941720523  -1.8562333129908495 
H  4.1484594060303035  -0.5022746225334969  -1.8346429770070705 
C  1.4831238080251952  1.313592785131227  -1.6773893036385428 
H  0.5582197336086391  1.2478098566915028  -2.0230682145567087 
H  1.893963031672226  2.1358449899116336  -2.0465182432340057 
C  2.8424562691536908  1.4144760091526611  0.4219694115965447 
H  3.2683058657198307  2.2448840937997874  0.09018468612360392 
H  2.874430892891027  1.4349590865545119  1.4119345862249453 
C  0.8699592769892601  2.9183828954219435  0.1035482387229775 
H  1.4549572200818617  3.531400384226206  -0.38971302571763605 
H  0.8345916713956982  3.1889260575500527  1.0451300672967396 
H  -0.031720251231879715  2.9476429805244933  -0.2799742453724325 
N  2.245181589745928  0.15693652875143857  -2.085068039773245 
N  3.5930854171807773  0.2840140819796775  -0.0465414989962654 
P  1.46400467126987  -1.3916861436760801  1.2902936487260194e-16 
N  1.46400467126987  1.3916861436760801  -1.7043239812706351e-16 
Br  -1.5839191898578664  1.5839191898578664  0.0 
C  -1.308147545195113  -1.308147545195113  0.0 
C  -2.5481111008682706  -1.081588847540519  0.5874691967409313 
H  -2.7399447190521347  -0.23895174706744582  0.9782000501948406 
C  -3.514692573752534  -2.090568128666735  0.6049610958635798 
H  -4.3504064840370384  -1.9365173000894942  1.0287619599160838 
C  -3.2692344052199704  -3.300825455744854  0.016423527177974795 
H  -3.920165040096455  -3.990528127682657  0.045080339651694334 
C  -2.0939695739763726  -3.5035118821402764  -0.6007549227026172 
H  -1.9425337635726068  -4.327915038834382  -1.0474288760065322 
C  -1.0854604411866036  -2.53050399443706  -0.5998012209931928 
H  -0.24896772463074335  -2.712575304189299  -1.0129111498427692 
