46

Pd  0.0  0.0  0.0 
P  1.5557815511825555  1.4393205914597345  -1.0813362739731974e-15 
N  1.555781551182556  -1.4393205914597345  -2.220446049250313e-16 
N  2.919424097109933  0.49098465567236316  -0.29599476318177054 
C  1.547399153390243  -2.7872355323780753  0.03061433416483249 
H  0.7367184305236212  -3.2414985602813293  0.22383784995066525 
C  2.7024403329875644  -3.529841398883462  -0.21597335909303905 
H  2.6562331302574083  -4.478154052852869  -0.19199577086255643 
C  3.9176685989075404  -2.9195659152893856  -0.496410973961596 
H  4.6946110421392095  -3.433039629474538  -0.6838728494085828 
C  3.9571702448453356  -1.5239688975584023  -0.4923324854437327 
C  4.920901055278103  -0.47351488198247305  -0.736885007784074 
H  5.8398835789270365  -0.5945581269924745  -0.9450039018454253 
C  4.279996891955558  0.7170061042157125  -0.6161144200669988 
H  4.682891768370929  1.5704737731206397  -0.7295054986059556 
C  2.7458440878346155  -0.8740967977982246  -0.22936432141068064 
N  1.844013353668126  2.475746095861845  1.2749591726250686 
C  2.6083067320750386  3.649603567244561  1.2821964789154157 
H  2.977577542328805  4.0816365616237675  0.5207248442091225 
C  2.7276881492270535  4.059184072448145  2.5716413117779773 
H  3.186429381969438  4.835626330435021  2.8717001583302073 
C  2.0435772133524033  3.121028755966123  3.3939287369361377 
H  1.9701866253415639  3.1606533784014617  4.341155658475195 
C  1.5144907162992005  2.1607807311683307  2.596436524116534 
H  1.0108974735209284  1.4088571802779826  2.8834906992203218 
N  1.5379732872664784  2.4713192745978367  -1.3175270030392345 
C  0.7917853351042725  3.65460386741584  -1.3895136160136443 
H  0.5303711396464497  4.191783040414304  -0.6504606175691215 
C  0.5053706106965299  3.903740656069942  -2.692022178819098 
H  0.02711105233283395  4.653613656153533  -3.0260608421193416 
C  1.0491930192388872  2.8375849996406157  -3.472506338960084 
H  0.9916533411275754  2.7491939276620134  -4.417386174620317 
C  1.6618663443210961  1.9744763132428953  -2.624916861561063 
H  2.1009855232264263  1.1701497915012058  -2.8736328504729505 
Br  -1.654629867976521  1.654629867976521  0.0 
C  -1.3788582233137676  -1.3788582233137676  0.0 
C  -2.618821778986925  -1.1522995256591737  0.5874691967409313 
H  -2.8106553971707884  -0.30966242518610043  0.9782000501948407 
C  -3.5854032518711887  -2.161278806785389  0.6049610958635797 
H  -4.421117162155692  -2.007227978208148  1.0287619599160838 
C  -3.3399450833386255  -3.3715361338635086  0.016423527177974573 
H  -3.9908757182151104  -4.061238805801311  0.045080339651694 
C  -2.164680252095028  -3.57422256025893  -0.6007549227026177 
H  -2.0132444416912625  -4.3986257169530365  -1.0474288760065327 
C  -1.1561711193052586  -2.601214672555715  -0.5998012209931929 
H  -0.3196784027493984  -2.7832859823079534  -1.0129111498427692 
