108

Fe  0.0  0.0  0.0 
Si  -7.70976303153938  3.18528753521431  -0.39527941527741084 
N  -1.6370525315674316  0.9524684372897194  -0.020320444890444767 
N  0.9808466130120196  1.6640383719350196  0.019956805748951312 
N  1.6492407522077217  -0.9745089710426806  -0.019861325223727022 
N  -0.9930348336523098  -1.6419978381820584  0.020224964365220477 
C  -2.9227144795517206  0.5210946801899057  0.27600837110765297 
C  -3.8914892014751046  1.589585527834786  0.005134698224160239 
C  -3.1242062722994874  2.634646591364292  -0.5254615136830354 
C  -1.763363022624014  2.249047642978592  -0.48508836893884516 
C  -0.7808876163152474  3.186274171731929  -0.7403199300738198 
C  0.5329856506939474  2.9393692521685155  -0.2726098607638108 
C  1.5294835632264066  3.910405918060639  0.07557950411046666 
H  1.4561072827643358  4.853928826937971  -0.013684104875567038 
C  2.5891450728670855  3.229492351066078  0.5556878140456093 
H  3.396027390888924  3.6089368148592147  0.8857693702714123 
C  2.2863219091271754  1.836556084852347  0.47976627712032627 
C  3.210695596383244  0.8190362419513547  0.6274621322123419 
C  2.917392372593523  -0.502119195382376  0.2715283752882804 
C  3.8734268770976796  -1.5358113214567817  0.10920615041052711 
H  4.80916142409326  -1.4614649889254665  0.2600077763902377 
C  3.223233728278769  -2.6381265235486664  -0.29248252812805664 
H  3.6150842905102167  -3.4761270351944065  -0.5079928280219949 
C  1.8315127833907021  -2.3162929899312648  -0.33762849360905334 
C  0.7953750858414181  -3.232425167578466  -0.5243833992920445 
C  -0.5184086182271841  -2.9146875407897364  -0.26568915999312737 
C  -1.5693149903541486  -3.8711904699043966  -0.0926902767076464 
H  -1.5077327390482964  -4.805704279480754  -0.25412464738249396 
C  -2.654136265382646  -3.2155442531176623  0.3370404525389248 
H  -3.489796593195084  -3.601652880723857  0.5707055637739273 
C  -2.3177520127338327  -1.8169114010706748  0.37835473269495157 
C  -3.240517877406603  -0.7902826948292647  0.5866168716347967 
C  -5.272749615846383  1.7770735303741338  0.05879852770632865 
H  -5.82874453504254  1.0970905726027878  0.4177051547955901 
C  -5.843180828288895  2.970140071141188  -0.4170839380071094 
C  -5.007865925463481  3.988942558025369  -0.9258820372924508 
H  -5.403050223052343  4.792169020774501  -1.2433145033048554 
C  -3.605102066357049  3.850622689139642  -0.9788341803677131 
C  -2.610948266470116  4.774153113110176  -1.5073515293461321 
C  -2.9735328774214898  5.955799674355387  -2.180749119331877 
H  -3.89111117791652  6.1977708878854125  -2.2277342689374366 
C  -2.037384887503994  6.7658409919174165  -2.769556672625658 
H  -2.308278926700476  7.555576138955614  -3.220989012030327 
C  -0.6909845765556346  6.426768663211668  -2.7059487439986314 
H  -0.04393847884193522  6.979212865657628  -3.1262046072739906 
C  -0.2931907178494839  5.293249329042417  -2.0346532687865815 
H  0.632183016717391  5.079131321952199  -1.9993711144665478 
C  -1.2230157565532362  4.438868173838016  -1.3965939227762223 
C  -8.525417242873193  1.5593397256459456  0.12147131582343607 
H  -8.293059952990621  1.3563782956826271  1.0516177493411227 
H  -8.209604420594296  0.8359290661842033  -0.4594328234812909 
H  -9.499775752315873  1.6401221165430095  0.03989742050396272 
C  -8.367010849105156  3.7373395062727024  -2.003084430680575 
H  -9.344192073226589  3.7813670726681075  -1.95941466285618 
H  -8.097413639194006  3.1043500636419425  -2.70049719936647 
H  -8.009928469942281  4.625220114737732  -2.213575498432026 
C  -8.178510249012517  4.483758616835423  0.9252743989629971 
H  -9.148968467091473  4.483793205638183  1.0537073611130299 
H  -7.889494918829373  5.3714462683222335  0.6263361740452741 
H  -7.735731969117814  4.262669625526427  1.771679215097369 
C  4.608502653586546  1.1426143195871041  1.0684611781366975 
C  4.86743593049083  1.43689143409604  2.404676234925052 
H  4.15705034259872  1.4599518694209805  3.033715456943688 
C  6.1739098520103415  1.6982257453299987  2.8132408566941116 
H  6.3482536313887445  1.8887493099714292  3.727084480028202 
C  7.217222216870255  1.6850658532917209  1.9083304320818422 
H  8.102523872535528  1.8703754256685639  2.1959556410984313 
C  6.960835003308469  1.3992330193221745  0.5830209558662073 
H  7.671759503027603  1.3847890399165441  -0.04727375865869787 
C  5.669190358026858  1.1338696020093213  0.17267620194898192 
H  5.503196595068216  0.9416191114014419  -0.7426489585922648 
C  1.119920759721094  -4.624224706636414  -0.9817958265872283 
C  1.871037246976206  -5.506885924601397  -0.22600948980009739 
H  2.1833358534897536  -5.244777642971554  0.6334268365619823 
C  2.175109225551792  -6.7781894988824325  -0.7153976934435781 
H  2.700024536196723  -7.376872794745705  -0.19656955436010393 
C  1.7075236772281739  -7.16062213369287  -1.9606949089029446 
H  1.909921307100387  -8.026043495287858  -2.2963245802926897 
C  0.9563070602698425  -6.299124443910585  -2.7116134896461968 
H  0.6425729545337264  -6.567392423907073  -3.567735082532723 
C  0.6531554068632035  -5.043386059861693  -2.2292351258454333 
H  0.120683139966445  -4.456531081846732  -2.7523251083196603 
C  -4.613432204246355  -1.1267318626866247  1.0626060192067124 
C  -5.54524110566564  -1.729819479717231  0.22533243941326486 
H  -5.3057330059272  -1.9565942029507961  -0.6649322600228199 
C  -6.8275414271441495  -2.003196403536525  0.6901962076929694 
H  -7.456604963716456  -2.4193746632045423  0.11296344429951566 
C  -7.192891593603137  -1.6776258663028498  1.9669403132809946 
H  -8.07643790375812  -1.8505341613613904  2.2726050140749585 
C  -6.263525864400602  -1.0962050146349342  2.8092737535702885 
H  -6.5008629007508  -0.8853216999319289  3.704534413242308 
C  -4.994069706655732  -0.8179922987518354  2.3489862909074675 
H  -4.367869610157541  -0.4058415547456994  2.933215469707059 
C  0.0019819738778579232  -0.008531741906679768  3.3716300580234755 
N  0.0  0.0  1.8699999999999999 
H  -0.8856108638339306  -0.21056091492905132  3.695377703096967 
H  0.6284183346085791  -0.6504348360801051  3.6909618504354302 
H  0.2552105553474935  0.8695274929158365  3.675219806977179 
O  0.0  0.0  -1.79 
H  -0.8042268603376348  -0.04002427116753807  -1.5489309127470348 
O  -0.9218718393584138  0.8589285029637131  -4.448789457364846 
H  -1.0958012598810856  1.5293190859831092  -3.9741132805078627 
C  0.2588385570990676  -0.7106922502516407  -3.0208782623765567 
H  -0.4441832556669528  -1.3627599572182185  -3.170856015081843 
H  1.1004212484366291  -1.1878944811265781  -2.947831260459912 
C  0.3198401259799922  0.23879552424325978  -4.186002197706524 
H  0.982588884461925  0.9221088563338802  -4.002274155976718 
H  0.6043943992664742  -0.2477810097599885  -4.97513121257785 
