43

Fe  0.0  0.0  0.0 
S  0.6126974950167676  0.4722183728477705  1.549934666508618 
S  -0.1517049127566085  -2.2124925226423167  -0.2687557240271316 
S  -2.2476330952354693  0.5379643249507231  -0.32189030240523925 
N  1.7866405129753102  1.202309824843823  -0.9592886400762474 
N  -0.47328109938216184  -0.1272261029242749  -2.5826350888583374 
C  2.0671015940071733  1.862678933791371  -2.1033514713815307 
C  3.2655099466206936  2.472746910383441  -2.3211391531337515 
C  4.243701052695443  2.3708492020831597  -1.3249774257825093 
C  3.9458898695042386  1.7855855309054383  -0.1448397116296952 
C  2.7404867558491954  1.179235560791643  -0.023832450137976427 
C  2.424484725962662  0.339188760076623  1.1967842709157916 
C  0.20985012012459137  -1.1504946067761919  2.337162326275732 
C  0.36305381109411117  -2.355066594640306  1.4219401209472058 
C  -1.9999795572824537  -2.2472144568247834  -0.20759621381416554 
C  -2.6865798696152807  -1.081100000429126  0.3790747891248975 
C  -2.8213084320739936  0.41664037614823346  -1.9772042688026046 
C  -1.7870527443764677  -0.05713303630274694  -2.9626164394803727 
C  -2.1074479129155272  -0.34434788414457096  -4.305701938306126 
C  -1.0786163606135204  -0.6537175961660486  -5.221447387801559 
C  0.19903401827635636  -0.7171029725406943  -4.804518492923309 
C  0.5157211074151196  -0.5127725263602887  -3.4902773368425337 
H  1.2889330633208786  1.9602199335897013  -2.8444228452773763 
H  3.4612609434190746  2.981049615605836  -3.2475418124110416 
H  5.211762820023262  2.80504604678403  -1.4982837000196172 
H  4.665817049106729  1.7892269464306418  0.658685836291823 
H  2.704347819740426  -0.6808027775102228  0.995265507540364 
H  2.9904354995402813  0.7065621931621497  2.045085881517733 
H  -0.8172429415972078  -1.1416406098717407  2.698861827660176 
H  0.8705596658020267  -1.308450133970177  3.1762906821782058 
H  1.4032240553394837  -2.620318842854179  1.4043959537110453 
H  -0.1631694245476469  -3.18822649155017  1.8487346294075002 
H  -2.2780729855766837  -3.1408881060070035  0.3518395947437922 
H  -2.3338422574115762  -2.3562853775376813  -1.2270027871289209 
H  -3.7474009232162153  -1.2393294976872449  0.26622790864321844 
H  -2.417706501240074  -1.0677582885803993  1.4229150549239886 
H  -3.1699577444871307  1.3926108810575235  -2.2632937137336486 
H  -3.676731556689283  -0.23676385853308615  -2.0120237170167083 
H  -3.1461120427569336  -0.33490353043449933  -4.599357807588175 
H  -1.3472179581992554  -0.8572354721454765  -6.2568305419677905 
H  0.9534274956951454  -0.958646760058339  -5.539875120648671 
H  1.518672857924801  -0.6540183077108552  -3.128283047660737 
O  0.0  0.0  -1.79 
85

Fe  0.0  0.0  0.0 
O  -3.5138745416348707  -0.22128839692570457  -2.2526556847777193 
H  -3.198607774712208  0.6725382048918793  -2.2863058193593497 
O  -2.040519908220169  2.0183349144861924  -1.8585379267715176 
O  -0.33703700552844734  1.1718803664172597  -3.4514271000319807 
H  -1.0534309350412308  1.5004986583333877  -2.9162612416522045 
N  -0.05191210452715561  0.5726704916456735  1.3245805315370096 
N  1.9201346963037778  -0.2925571200953742  -0.5181831796352515 
N  -0.40652663548908025  -1.8785524915430274  -0.10895358773541021 
N  -2.3458367422863216  -0.8785243277273582  -1.8695896975688786 
N  -1.4616959562875418  1.598439119992728  -0.6974437641663478 
N  0.5443795703076455  0.7394036946234668  -2.497257357168825 
C  1.3547415228168944  1.0200381806531666  1.5205349484607515 
H  1.5475627680810553  1.0781070865849727  2.4898131951673714 
H  1.4679293798288466  1.9232767872883911  1.1321434597426026 
C  2.3411801032897093  0.06692547839994711  0.8695864145824267 
H  3.2356304109575627  0.49025830611607024  0.8411348049485344 
H  2.409931532196863  -0.75642918915684  1.4145234957538912 
C  1.9751724056971778  -1.754672397954113  -0.7741732278730593 
H  2.8768723554290645  -2.094251549505114  -0.5452633318759403 
H  1.8199590762807114  -1.925346784989493  -1.736752199169212 
C  0.9343486456217285  -2.5022479205587245  0.04357058192610169 
H  0.895316428525593  -3.445821000908204  -0.254425874543359 
H  1.1958258099476926  -2.4929034255993607  0.9984350660022481 
C  -0.35008373018697286  -0.6859746010136305  2.06798140749562 
H  -0.9050388531029496  -0.4754111391113384  2.8601947689463327 
H  0.4971939723492159  -1.0878343133103165  2.3859807572085074 
C  -1.0826847374919764  -1.6854022237858226  1.1918581108440438 
H  -1.1364361789797768  -2.554340306323322  1.663113382702129 
H  -2.006621654962258  -1.36630811251074  1.0353229368891916 
C  -1.235016169963569  -2.733114795407939  -0.9910810275531116 
H  -1.455657670150785  -3.5707980648919406  -0.5124024836202064 
H  -0.7075054748080256  -2.9738084418592425  -1.7936710630347958 
C  -2.5217999718241537  -2.0638706736141796  -1.430513141438431 
C  -3.797548105669206  -2.7999382288445562  -1.3024385025436045 
C  -4.07073314496674  -3.4542137053980717  -0.10630688140625072 
H  -3.446938553043829  -3.4116271363590607  0.609102813261927 
C  -5.245465841308419  -4.166952349997133  0.047884482297749595 
H  -5.435238259061439  -4.597041626888245  0.8730192672653049 
C  -6.145402413686895  -4.252686116867648  -1.0006443141183883 
H  -6.95177452963397  -4.743631941366506  -0.8962428867805908 
C  -5.8716439547663155  -3.6275685002546503  -2.191773896308972 
H  -6.484604179597577  -3.702730739842687  -2.9136868346297353 
C  -4.707654501408994  -2.8852459831016257  -2.353321700381094 
H  -4.534035236792361  -2.440065239724217  -3.174160756883596 
C  -1.018760728520245  1.6657674920203351  1.627011045960715 
H  -0.5384057697588582  2.4028139758788933  2.0812564468456176 
H  -1.7058313082292322  1.3228672152078749  2.251962499003505 
C  -1.7014777904906198  2.211355125423923  0.4048316697758573 
C  -2.5881478793759216  3.3859616062331335  0.5315710429679714 
C  -3.901599107644016  3.3521361861218617  0.08905386599589327 
H  -4.250623599717772  2.5607460133048723  -0.30334938106171244 
C  -4.70604017696328  4.4741532140495295  0.21916633670042937 
H  -5.610101103886987  4.4454577848533  -0.0687984402308678 
C  -4.197829601794601  5.6306574583815845  0.7647800133331375 
H  -4.748564106877278  6.400988653609937  0.839955571657606 
C  -2.8950581055026663  5.676227305799648  1.203981809157759 
H  -2.5488807119119743  6.476396715579115  1.5807227119277303 
C  -2.0864583579794895  4.553747336105089  1.0962316075804115 
H  -1.1897066850560487  4.583635315706569  1.4081353199410573 
C  2.6878772146087035  0.42354318373747246  -1.565633293214563 
H  3.4387588647439946  -0.14497773382549511  -1.8705476644460113 
H  3.067913811987452  1.2546783372657937  -1.185345979171304 
C  1.803887170584919  0.7685742444682979  -2.7489998125980515 
C  2.425536967169123  1.1749218857288295  -4.024899230596515 
C  1.847864140514843  0.811556633476455  -5.2495746605781965 
H  1.0169134812230858  0.35160183555569374  -5.269981171604469 
C  2.498772984367866  1.128897165176593  -6.426917178256971 
H  2.1177939474090013  0.8670108841915161  -7.256719322885257 
C  3.693540911999135  1.8200289326000463  -6.415643795365537 
H  4.1354723936277615  2.0211643681649916  -7.232581321805367 
C  4.245497385512287  2.2200498094872936  -5.210431262489581 
H  5.052969270330568  2.7200740801415617  -5.198198765414996 
C  3.6160988706418555  1.8881174447770286  -4.023083038615578 
H  4.003941775410583  2.1516637710011146  -3.19692391038764 
C  -9.906509232948061e-17  1.9857302067079894e-16  -1.91 
N  0.5499990248356542  -1.1463521857289802  -2.496826174394272 
C  0.6743677230282423  -1.2411141348673782  -3.783011748059819 
F  1.2198961508270876  -2.3227109534723365  -4.31489935502858 
C  0.1646471592745782  -0.31380386755474216  -4.678744824943334 
F  0.24898967731117538  -0.49879916626858445  -5.987036676597628 
C  -0.4218336332755277  0.7881221848542681  -4.171532024442303 
F  -0.9162904099102177  1.7516543956866182  -4.965313899221865 
C  -0.43977245231126055  0.9513592935090518  -2.7883271570673984 
F  -1.0800032397797286  2.0316444338420823  -2.2558129935438807 
