94

Fe  0.0  0.0  0.0 
S  0.4871830568576889  -2.29547491865536  -0.5774663962603965 
S  -1.731425264643985  0.0009581442219535138  -0.3477633847706734 
S  2.8757451366833946  0.015751048602428246  -0.3467083431138149 
S  0.6781792808666455  2.3106499315848774  -0.5775464817181404 
N  0.5660629269196504  -0.016133157151471206  1.5027762627492105 
C  -1.2184999056215255  -2.746745279641464  -0.3494487811434887 
C  -1.6701368978270499  -4.098848409170374  -0.31055463775821024 
C  -3.0395845780054347  -4.313204970540307  -0.15085061197395208 
H  -3.3472633538033336  -5.212077757926021  -0.14033143800708356 
C  -3.993382364401509  -3.300278539501678  -0.006632138922491577 
C  -3.537241864893216  -1.9968459653328392  -0.04304929564728891 
H  -4.151951348867309  -1.2784376510997852  0.04408895286119318 
C  -2.1795997004592267  -1.731181042778313  -0.20764125254400595 
C  -1.7945752688658276  0.5741688037251339  1.3771541166764858 
H  -1.892656336568461  1.5592319682038045  1.3822409767669104 
H  -2.5965444347069813  0.18999217759271347  1.8116030630137447 
C  2.4010280345335264  2.748245388432163  -0.39892946647298017 
C  2.8505272425719026  4.108678398590269  -0.41170823186830696 
C  4.225867235624427  4.3141184553172085  -0.2817729533550572 
H  4.540522184827736  5.210241677740053  -0.3043632870480075 
C  5.176799995831393  3.2966294720254194  -0.1204989801138583 
C  4.704748520535272  1.993836052166598  -0.09596594435980096 
H  5.309892164301759  1.2701938731342965  0.014508790916653701 
C  3.3489918327841313  1.7485410454621773  -0.23224607241936235 
C  2.931850260380816  -0.5783309644146619  1.3823638118017794 
H  3.0640268166309728  -1.559449693910088  1.3751487850429134 
H  3.716863809999733  -0.17422052725349274  1.8298935331523478 
C  -0.5827308326726616  0.2055266054732885  2.1873034992817653 
C  -0.6170223470890042  0.1556033393049569  3.576111542005495 
H  -1.4332731505657903  0.2964360744733183  4.041862491042102 
C  0.548935207324453  -0.10186696084440224  4.270026922903764 
H  0.5440165470659156  -0.13513446003268034  5.219884101788578 
C  1.720928979707256  -0.3095811506763722  3.5738150637413564 
H  2.530050962279689  -0.48088912724120947  4.040510708121413 
C  1.71001141356534  -0.26727588536915714  2.189168162442393 
C  -0.7144600724365173  -5.322656293976774  -0.4185031277761873 
C  0.3048131156091497  -5.304436898194309  0.7369103877015157 
H  0.9009062956380081  -6.078412837833775  0.6593367737449218 
H  -0.1704847987589258  -5.343039131156834  1.5933524290608039 
H  0.8331365073449624  -4.479897929752198  0.6938989559049717 
C  0.012912659634178451  -5.349648624808376  -1.775934799248564 
H  0.5956003111019014  -6.13673445462906  -1.818374489663472 
H  0.5533164564657815  -4.5378272533684285  -1.8729863692685815 
H  -0.6464406857855276  -5.3919585708143885  -2.499324227117682 
C  -1.4795893404314506  -6.648636232002551  -0.3029331610430771 
H  -0.844065469980903  -7.394485034115278  -0.3175726444549439 
H  -2.1011026088202907  -6.733907927615959  -1.0554245929835586 
H  -1.9815949877144867  -6.6639445278228235  0.5388569352250001 
C  -5.470951015150115  -3.6677997833931117  0.2229040839562409 
C  -5.583122572970412  -4.485045825851328  1.5221547940590099 
H  -6.519411763832891  -4.735727449352792  1.6699276424201177 
H  -5.2671421224751445  -3.944827979250898  2.275982972836642 
H  -5.036428928934237  -5.294553071297793  1.4476343999368289 
C  -6.3481150181250054  -2.418858542351847  0.3482008050281642 
H  -6.27701728287971  -1.8857621639433566  -0.4709850245433323 
H  -6.048127671848787  -1.884557677439403  1.1129060213226307 
H  -7.281074539726579  -2.6873117666477224  0.4831399669423823 
C  -5.990693357337484  -4.511981771408217  -0.9520650002534048 
H  -5.908794893678705  -4.000072377428025  -1.783202229599536 
H  -6.932182232287166  -4.738345839202637  -0.7989526978164505 
H  -5.463926078128643  -5.3350720593026875  -1.0209639228045833 
C  1.9080894562113524  5.326136357157637  -0.5894118839433331 
C  0.8952524401208369  5.394635625679262  0.5658209579759317 
H  0.2770131469218169  6.1402439988944195  0.4145560243785414 
H  1.3717615805166619  5.531541864566167  1.4106136727131464 
H  0.390154534017925  4.555535814828523  0.6074838033025114 
C  2.674153531982783  6.660256591995763  -0.5652786950133455 
H  3.335031833767459  6.670088938142952  -1.2890793272315313 
H  3.1312667706200434  6.758838180030514  0.29573838818715714 
H  2.0444751642634498  7.401048939267907  -0.6880342710551017 
C  1.1875104735539963  5.256205771353473  -1.9477590203269515 
H  1.8508908388234084  5.2050289641576  -2.6669723999162476 
H  0.6371789022370767  6.0584827996979564  -2.0673193038771194 
H  0.6154072714947376  4.460989409290485  -1.9734559793075044 
C  6.674113013272967  3.6520597931451073  0.011948649645094619 
C  6.88715163853131  4.453098588423121  1.3169787001066087 
H  7.827041604990831  4.720987357619392  1.386173196182718 
H  6.648800337915527  3.894153333230871  2.0856791809135595 
H  6.319524797939272  5.252118579105598  1.3055124745169489 
C  7.115677483173548  4.501540920492314  -1.1881831986125633 
H  6.963246780008838  4.00087117563139  -2.0163272424320007 
H  8.06911925876697  4.713399594391381  -1.1051277180770265 
H  6.597050275188335  5.332723665227484  -1.2081965439593274 
C  7.552892820716664  2.3965464051358842  0.07074382426700686 
H  7.3879707177734115  1.8447167705705527  -0.7219317741818585 
H  7.336296071731187  1.8833576384473967  0.8771037427114139 
H  8.497068459989675  2.659234966942873  0.09502183281743955 
N  0.0  0.0  -1.8699999999999999 
N  -0.4538992598058027  0.29830444412126583  -3.2338425167757627 
H  0.7506602570833187  0.561537890640887  -1.8900396060387568 
H  0.45035873581133434  -0.7958998175480545  -1.9325845788145093 
H  0.3003517489806596  0.3701364830995625  -3.846776831299615 
H  -1.04747148206951  -0.4340790003136606  -3.492870637400838 
58

Fe  0.0  0.0  0.0 
N  0.9114476278239535  -0.7667361032192651  0.76406478644106 
C  -0.3206255514897294  -1.152052389489265  1.5152524330054642 
H  -0.12461364416945964  -1.5995725841293311  2.3877087858266175 
C  -1.12616506154865  -2.00369653246183  0.5831157201384315 
C  -1.9012798061231158  -3.082687366773068  0.9322748847261617 
H  -1.8699378984531125  -3.4347432466351924  1.815376227878866 
C  -2.7245475505642758  -3.642554369286656  -0.013918499555937408 
H  -3.2809362958226407  -4.378346066009344  0.21282812816710514 
C  -2.740303238164079  -3.1286678731500577  -1.306948447931731 
H  -3.317699936458461  -3.4946815077434588  -1.9663021027259346 
C  -1.9033799293130338  -2.078451288413632  -1.6116237509124223 
H  -1.8743704902272897  -1.7455856854612462  -2.5006957068389797 
N  -1.135814923822677  -1.526541982431596  -0.6775237507427306 
C  1.722906378741083  0.2732214378134007  1.4548440119605481 
H  2.532621874558571  -0.13964410068897348  1.8467275188221985 
H  1.1946236938639219  0.6752681220551492  2.1894354960856983 
C  2.11764194979866  1.3324265030449278  0.47576943424456886 
C  3.1833879967889764  2.1859129952204213  0.692224120030033 
H  3.7000400839763934  2.1135753519254457  1.4861809300439102 
C  3.489000577514192  3.135746456285797  -0.24693849461295028 
H  4.228500260290236  3.7179810172859513  -0.11538092109061607 
C  2.728836110850306  3.238544456047928  -1.3717495742465566 
H  2.9323603766095903  3.8888818725111527  -2.033780712483332 
C  1.6604015234860443  2.3891203699892216  -1.533241012245886 
H  1.118429556262519  2.473931308124662  -2.3083513215028644 
N  1.3601822198214002  1.4459049502691812  -0.6266999256373057 
C  -1.12616506154865  0.10186296333777123  1.6631472796995974 
C  -1.9012798061231158  0.4477550636840224  2.743189870369669 
H  -1.8699378984531125  -0.06410409772205306  3.5443212726429003 
C  -2.7245475505642758  1.5428663666924334  2.6459056733694193 
H  -3.2809362958226407  1.787960736640421  3.3757907355330605 
C  -2.740303238164079  2.2932546013278245  1.474187586272937 
H  -3.317699936458461  3.042304844411934  1.3867979064796012 
C  -1.9033799293130338  1.9280198482016695  0.44346672677183274 
H  -1.8743704902272897  2.455923754686541  -0.34556173783634736 
N  -1.135814923822677  0.84737313538168  0.5401588899389764 
C  1.722906378741083  -1.9344840308216462  0.32241741223811426 
H  2.532621874558571  -2.0119050418069246  0.8863647705004416 
H  1.1946236938639219  -2.7656631161785485  0.4244346310016278 
C  2.11764194979866  -1.7572222432424873  -1.109043609797096 
C  3.1833879967889764  -2.430942613216435  -1.6759586708130119 
H  3.7000400839763934  -3.03358513290448  -1.154017922960415 
C  3.489000577514192  -2.222290296505805  -2.995304808577383 
H  4.228500260290236  -2.6688116047769044  -3.3914401395363782 
C  2.728836110850306  -1.3687016009375088  -3.7350032149698995 
H  2.9323603766095903  -1.2104088097181924  -4.649425095446926 
C  1.6604015234860443  -0.7419918112644956  -3.139322426248482 
H  1.118429556262519  -0.1619330640680099  -3.6603989432253115 
N  1.3601822198214002  -0.928010167544095  -1.8443825663190128 
C  -0.014594022419507774  0.002592956332436294  -3.0675845103503243 
C  0.0821088506287384  -1.0309802557955767  -4.062583560357708 
C  -0.008439160920600597  -0.0019301592199184037  -5.1188752086926215 
C  -0.09506452078628154  1.037070003279707  -4.077804020274705 
O  0.0  0.0  -1.79 
O  0.2196430304569046  -2.27130730677897  -4.038795412514036 
O  0.006695395259891934  -0.012470786921568722  -6.350889766389435 
O  -0.19034957221914506  2.2770255491038904  -4.026011131252282 
