70

Fe  0.0  0.0  0.0 
O  -2.002153830592372  1.6960673178142078  4.096435456614911 
H  -1.946344974487479  0.9431494949955628  4.416791857615882 
O  -0.010932389887341132  -1.1723789699238139  0.9324121952531133 
O  -2.286684992535788  -5.262852231315318  -1.7655997690235423 
H  -3.0337511155257113  -5.116620860546352  -1.4623724548121835 
N  -1.6507422635059152  -3.8805282089197717  2.6135931009585787 
O  -1.9210455983513037  -0.3380306349288207  -0.8223418948525607 
N  2.2514566011423867  -0.03395138966244264  -0.6241806024199764 
C  -1.3814913346474675  1.6828417641887545  1.2227402656006057 
H  -1.4394587577262672  2.4335679007651274  1.7694444778787952 
C  -2.501610212616945  0.7536679441149624  1.2360894717896143 
C  -1.2711756880424536  -4.554807850448067  0.33830996697032356 
C  -1.0820100285217071  -2.6940502704328204  2.379111851444631 
N  -4.7221718052991815  -0.9509532132334237  1.3491394741106253 
N  -0.3194786129037416  1.5443609945150771  0.5141103020194241 
C  -0.6912957161472054  -3.293349304520345  0.05612236075650509 
C  2.8117385336537906  -0.9817208691946975  0.37220012288960425 
H  2.5123101857593992  -1.8719039287658927  0.1701057762846053 
H  2.5130976541985937  -0.735425135552475  1.250814979756858 
H  3.770948095425957  -0.9503167460391002  0.34025943326527086 
C  -1.4105372237369882  -5.637357118028351  -0.7086028735423189 
H  -0.5352352728741538  -5.836632187175239  -1.0762163548405699 
H  -1.7476579183933818  -6.443313148178318  -0.2874960050406332 
C  2.5906117892204943  -1.7004576382820518  -2.5756590731471074 
H  3.1209622125492253  -1.7981108873941376  -3.381918356140419 
H  2.870394003699145  -2.3915236126846535  -1.955417788255168 
N  0.31262897831715697  -1.9154365620673128  -1.6975430412031163 
C  -3.4481859760371845  0.8480056569582383  2.3041268353873923 
C  0.6954435296278662  2.6012508416240046  0.6190849450391674 
H  0.4479752900847333  3.216233853140092  1.3277208853950224 
H  0.7286997662090083  3.098710191040084  -0.21233809313513577 
C  2.8895612921672273  -0.3297411916475861  -1.9528873030630045 
H  3.849941623470446  -0.24873420281650416  -1.8510698339997829 
H  2.607290263575823  0.35396143483744824  -2.5812277799984136 
C  -1.0182400108978193  -1.7107782276276715  3.486946322243423 
H  -1.3961795871765048  -2.097774495463308  4.279291963591676 
H  -1.5151070800967161  -0.9255347862175396  3.245909824450928 
H  -0.10358223375662945  -1.4732341990213746  3.6513093204779064 
C  -4.4986168104219395  -0.04571692952070271  2.303478305404532 
H  -5.093645364555592  -0.014966390781740543  3.018726013637755 
C  -3.264611422228027  1.8402789148823526  3.423158682477739 
H  -3.330503007868299  2.737672357958133  3.063444007677825 
H  -3.98053814478776  1.7258031288297564  4.067354244657828 
C  -0.5823012275969046  -2.3358441654582878  1.0709543912597843 
C  -0.07639166139979847  -3.0792931547265177  -1.2573175153667389 
H  0.04436372338717598  -3.8184620839379186  -1.8095392291135104 
C  1.113930553332346  -1.9226039709721092  -2.9273193558749226 
H  0.8086576120258385  -1.2200078178291163  -3.5216492952980865 
H  1.0098627935351077  -2.7727841788111767  -3.3816575180069464 
C  -1.7444598875372401  -4.775125070199294  1.605270755309752 
H  -2.1548480487636734  -5.5899438096934375  1.782348136401641 
C  -3.8724525380734285  -1.0368695893430024  0.3110024488478099 
C  2.7460453810055876  1.3463060880730873  -0.27517240195960846 
H  2.6256289356102824  1.9176843018810195  -1.0496129138544976 
H  3.6977890140014438  1.2927172243170435  -0.09798800441517244 
C  -2.718856293019139  -0.19770255901154282  0.21440695929823167 
C  -4.139639761887608  -2.0414675529149147  -0.7563517140323647 
H  -4.948008812268728  -2.5183406960210393  -0.5520050141079162 
H  -3.4064959655522893  -2.6592346626763295  -0.8050781133664512 
H  -4.2377901545710985  -1.5931773351670868  -1.6001122672035124 
C  2.0762158862023883  2.0124210574247154  0.9165717591325987 
H  2.6523936713671983  2.7217548022941545  1.2402718800347579 
H  1.9877502201383843  1.3590804793086906  1.6277104199540127 
N  0.005911147534625259  0.02851952234671179  -3.0491377288018944 
C  4.748681802749261e-17  2.1251289365363332e-16  -1.91 
C  -0.0005240438475530435  -0.0017638072163013163  -4.486687626461956 
H  0.8737254669060638  0.2854312144498482  -4.822689698594319 
H  -0.693981962720835  0.6025587858756644  -4.822392151648226 
H  -0.18513060787230184  -0.914745715455924  -4.793014627795678 
92

Fe  0.0  0.0  0.0 
S  0.4871830568576889  -2.29547491865536  -0.5774663962603965 
S  -1.731425264643985  0.0009581442219535138  -0.3477633847706734 
S  2.8757451366833946  0.015751048602428246  -0.3467083431138149 
S  0.6781792808666455  2.3106499315848774  -0.5775464817181404 
N  0.5660629269196504  -0.016133157151471206  1.5027762627492105 
C  -1.2184999056215255  -2.746745279641464  -0.3494487811434887 
C  -1.6701368978270499  -4.098848409170374  -0.31055463775821024 
C  -3.0395845780054347  -4.313204970540307  -0.15085061197395208 
H  -3.3472633538033336  -5.212077757926021  -0.14033143800708356 
C  -3.993382364401509  -3.300278539501678  -0.006632138922491577 
C  -3.537241864893216  -1.9968459653328392  -0.04304929564728891 
H  -4.151951348867309  -1.2784376510997852  0.04408895286119318 
C  -2.1795997004592267  -1.731181042778313  -0.20764125254400595 
C  -1.7945752688658276  0.5741688037251339  1.3771541166764858 
H  -1.892656336568461  1.5592319682038045  1.3822409767669104 
H  -2.5965444347069813  0.18999217759271347  1.8116030630137447 
C  2.4010280345335264  2.748245388432163  -0.39892946647298017 
C  2.8505272425719026  4.108678398590269  -0.41170823186830696 
C  4.225867235624427  4.3141184553172085  -0.2817729533550572 
H  4.540522184827736  5.210241677740053  -0.3043632870480075 
C  5.176799995831393  3.2966294720254194  -0.1204989801138583 
C  4.704748520535272  1.993836052166598  -0.09596594435980096 
H  5.309892164301759  1.2701938731342965  0.014508790916653701 
C  3.3489918327841313  1.7485410454621773  -0.23224607241936235 
C  2.931850260380816  -0.5783309644146619  1.3823638118017794 
H  3.0640268166309728  -1.559449693910088  1.3751487850429134 
H  3.716863809999733  -0.17422052725349274  1.8298935331523478 
C  -0.5827308326726616  0.2055266054732885  2.1873034992817653 
C  -0.6170223470890042  0.1556033393049569  3.576111542005495 
H  -1.4332731505657903  0.2964360744733183  4.041862491042102 
C  0.548935207324453  -0.10186696084440224  4.270026922903764 
H  0.5440165470659156  -0.13513446003268034  5.219884101788578 
C  1.720928979707256  -0.3095811506763722  3.5738150637413564 
H  2.530050962279689  -0.48088912724120947  4.040510708121413 
C  1.71001141356534  -0.26727588536915714  2.189168162442393 
C  -0.7144600724365173  -5.322656293976774  -0.4185031277761873 
C  0.3048131156091497  -5.304436898194309  0.7369103877015157 
H  0.9009062956380081  -6.078412837833775  0.6593367737449218 
H  -0.1704847987589258  -5.343039131156834  1.5933524290608039 
H  0.8331365073449624  -4.479897929752198  0.6938989559049717 
C  0.012912659634178451  -5.349648624808376  -1.775934799248564 
H  0.5956003111019014  -6.13673445462906  -1.818374489663472 
H  0.5533164564657815  -4.5378272533684285  -1.8729863692685815 
H  -0.6464406857855276  -5.3919585708143885  -2.499324227117682 
C  -1.4795893404314506  -6.648636232002551  -0.3029331610430771 
H  -0.844065469980903  -7.394485034115278  -0.3175726444549439 
H  -2.1011026088202907  -6.733907927615959  -1.0554245929835586 
H  -1.9815949877144867  -6.6639445278228235  0.5388569352250001 
C  -5.470951015150115  -3.6677997833931117  0.2229040839562409 
C  -5.583122572970412  -4.485045825851328  1.5221547940590099 
H  -6.519411763832891  -4.735727449352792  1.6699276424201177 
H  -5.2671421224751445  -3.944827979250898  2.275982972836642 
H  -5.036428928934237  -5.294553071297793  1.4476343999368289 
C  -6.3481150181250054  -2.418858542351847  0.3482008050281642 
H  -6.27701728287971  -1.8857621639433566  -0.4709850245433323 
H  -6.048127671848787  -1.884557677439403  1.1129060213226307 
H  -7.281074539726579  -2.6873117666477224  0.4831399669423823 
C  -5.990693357337484  -4.511981771408217  -0.9520650002534048 
H  -5.908794893678705  -4.000072377428025  -1.783202229599536 
H  -6.932182232287166  -4.738345839202637  -0.7989526978164505 
H  -5.463926078128643  -5.3350720593026875  -1.0209639228045833 
C  1.9080894562113524  5.326136357157637  -0.5894118839433331 
C  0.8952524401208369  5.394635625679262  0.5658209579759317 
H  0.2770131469218169  6.1402439988944195  0.4145560243785414 
H  1.3717615805166619  5.531541864566167  1.4106136727131464 
H  0.390154534017925  4.555535814828523  0.6074838033025114 
C  2.674153531982783  6.660256591995763  -0.5652786950133455 
H  3.335031833767459  6.670088938142952  -1.2890793272315313 
H  3.1312667706200434  6.758838180030514  0.29573838818715714 
H  2.0444751642634498  7.401048939267907  -0.6880342710551017 
C  1.1875104735539963  5.256205771353473  -1.9477590203269515 
H  1.8508908388234084  5.2050289641576  -2.6669723999162476 
H  0.6371789022370767  6.0584827996979564  -2.0673193038771194 
H  0.6154072714947376  4.460989409290485  -1.9734559793075044 
C  6.674113013272967  3.6520597931451073  0.011948649645094619 
C  6.88715163853131  4.453098588423121  1.3169787001066087 
H  7.827041604990831  4.720987357619392  1.386173196182718 
H  6.648800337915527  3.894153333230871  2.0856791809135595 
H  6.319524797939272  5.252118579105598  1.3055124745169489 
C  7.115677483173548  4.501540920492314  -1.1881831986125633 
H  6.963246780008838  4.00087117563139  -2.0163272424320007 
H  8.06911925876697  4.713399594391381  -1.1051277180770265 
H  6.597050275188335  5.332723665227484  -1.2081965439593274 
C  7.552892820716664  2.3965464051358842  0.07074382426700686 
H  7.3879707177734115  1.8447167705705527  -0.7219317741818585 
H  7.336296071731187  1.8833576384473967  0.8771037427114139 
H  8.497068459989675  2.659234966942873  0.09502183281743955 
N  1.5926015119905132e-16  1.5451803730972044e-16  -1.8699999999999999 
H  -0.5995627040070886  0.5879506502886873  -2.1641879446694197 
H  0.808924997382711  0.22482597693094525  -2.1596265158897356 
H  -0.20936229337562207  -0.8127766272196322  -2.175840995221339 
57

Fe  0.0  0.0  0.0 
N  1.1979269684080043  -2.41032712109428  -0.22170464627103786 
N  2.789069983546243  -0.23341380092822633  -0.4147688114089474 
N  1.553179624998322  2.1865953327893415  -0.1934909445269732 
N  -1.3771163830141935  1.2312115368306746  -0.35532489598809713 
N  -1.3739902103921329  -1.0074797485257359  0.7705204867861083 
C  2.4477739007504993  -2.602375892552648  -0.3978971690845303 
H  2.7864401339447658  -3.4839305064318102  -0.4981626429145942 
C  3.3641594387175497  -1.4437146088287656  -0.44342073884970246 
C  4.747479483028505  -1.5886757360167554  -0.5125173133807259 
H  5.143957455637608  -2.451270323477517  -0.5511898478098757 
C  5.533758926344291  -0.44672848747690574  -0.5235431272411536 
H  6.480011916622307  -0.519031004830262  -0.570699403326967 
C  4.931606457258204  0.8032382872043993  -0.46474647626218313 
H  5.453542485084038  1.5970309511039464  -0.46389231196411185 
C  3.5434748727790715  0.8624286618000856  -0.4078485525155696 
C  2.818425441642747  2.1531014134124127  -0.32570002450468305 
H  3.3057892781093723  2.967357409703613  -0.3720158253544803 
C  0.8993676204560821  3.455775331233041  -0.07009704570329212 
C  1.5831871740646535  4.558891422550615  0.45321881224371274 
H  2.4668226186891387  4.4527055156081365  0.7847708657286673 
C  0.9727575112466669  5.8158103115601145  0.49001532298921513 
H  1.4427440662783557  6.561953268759225  0.8426508650317205 
C  -0.3069138178243371  5.968795751940321  0.015048340362712983 
H  -0.7121574242120844  6.827923509659892  0.0033840616626612773 
C  -1.004851790340281  4.860447087768317  -0.4471441143014345 
H  -1.9024231616595204  4.970763364258042  -0.7381475550535007 
C  -0.42863350948346995  3.5856125884732983  -0.49868858261413695 
C  -1.2494645977090262  2.482035496102914  -1.1251398702636852 
H  -2.1595533701716225  2.8330275679750967  -1.2943729690369352 
H  -0.8503384869998719  2.2625111211183535  -2.004324843143579 
C  -1.8359893989436336  1.4087698078130548  1.0365224252571488 
H  -2.747410172575512  1.794451585651842  1.04628918702249 
H  -1.229942429560968  2.0273827308825187  1.5168070724337357 
C  -1.8384434079108574  0.021297902251927004  1.7329524857216307 
H  -1.2395679758328066  0.039629562297332416  2.5209959090767833 
H  -2.7529897022957224  -0.1970654286463064  2.0430805095213826 
C  -2.3428651364275703  0.334537089716613  -1.0332784719600798 
H  -2.0878080760309965  0.22422407943926106  -1.9835062950137972 
H  -3.2492443183824116  0.732318871889075  -1.0003463859257573 
C  -2.349923419582609  -1.0357998448394992  -0.332595950107095 
H  -3.253878149199278  -1.2302018923936469  0.0210246668122397 
H  -2.108807547618114  -1.746629129339339  -0.9784777075397126 
C  -1.2174172339062106  -2.3275730193160276  1.427825651415542 
H  -2.0542026588321414  -2.5502001035129838  1.9074606001145396 
H  -0.49070335203521415  -2.27052798293716  2.0974178390346343 
C  -0.9005123815430015  -3.437854107722643  0.45200987511590185 
C  -1.8167190817731949  -4.484794683559848  0.3089044135885298 
H  -2.6057058499695813  -4.487532674695319  0.8383892887413159 
C  -1.598508167118215  -5.518611182557169  -0.5900623339201634 
H  -2.23966439110958  -6.213940778738558  -0.6770652597983166 
C  -0.449638437424819  -5.5381653198696625  -1.3598351509955562 
H  -0.30890124676080305  -6.23468057305212  -1.9895289855280043 
C  0.4940876179278736  -4.5361774854357995  -1.207652457843606 
H  1.2953472613612833  -4.5609650962020885  -1.7182122762365781 
C  0.2749908512753016  -3.488779857391919  -0.30496573720878883 
S  0.0  0.0  -2.19 
74

Fe  0.0  0.0  0.0 
O  -2.002153830592372  1.6960673178142078  4.096435456614911 
H  -1.946344974487479  0.9431494949955628  4.416791857615882 
O  -0.010932389887341132  -1.1723789699238139  0.9324121952531133 
O  -2.286684992535788  -5.262852231315318  -1.7655997690235423 
H  -3.0337511155257113  -5.116620860546352  -1.4623724548121835 
N  -1.6507422635059152  -3.8805282089197717  2.6135931009585787 
O  -1.9210455983513037  -0.3380306349288207  -0.8223418948525607 
N  2.2514566011423867  -0.03395138966244264  -0.6241806024199764 
C  -1.3814913346474675  1.6828417641887545  1.2227402656006057 
H  -1.4394587577262672  2.4335679007651274  1.7694444778787952 
C  -2.501610212616945  0.7536679441149624  1.2360894717896143 
C  -1.2711756880424536  -4.554807850448067  0.33830996697032356 
C  -1.0820100285217071  -2.6940502704328204  2.379111851444631 
N  -4.7221718052991815  -0.9509532132334237  1.3491394741106253 
N  -0.3194786129037416  1.5443609945150771  0.5141103020194241 
C  -0.6912957161472054  -3.293349304520345  0.05612236075650509 
C  2.8117385336537906  -0.9817208691946975  0.37220012288960425 
H  2.5123101857593992  -1.8719039287658927  0.1701057762846053 
H  2.5130976541985937  -0.735425135552475  1.250814979756858 
H  3.770948095425957  -0.9503167460391002  0.34025943326527086 
C  -1.4105372237369882  -5.637357118028351  -0.7086028735423189 
H  -0.5352352728741538  -5.836632187175239  -1.0762163548405699 
H  -1.7476579183933818  -6.443313148178318  -0.2874960050406332 
C  2.5906117892204943  -1.7004576382820518  -2.5756590731471074 
H  3.1209622125492253  -1.7981108873941376  -3.381918356140419 
H  2.870394003699145  -2.3915236126846535  -1.955417788255168 
N  0.31262897831715697  -1.9154365620673128  -1.6975430412031163 
C  -3.4481859760371845  0.8480056569582383  2.3041268353873923 
C  0.6954435296278662  2.6012508416240046  0.6190849450391674 
H  0.4479752900847333  3.216233853140092  1.3277208853950224 
H  0.7286997662090083  3.098710191040084  -0.21233809313513577 
C  2.8895612921672273  -0.3297411916475861  -1.9528873030630045 
H  3.849941623470446  -0.24873420281650416  -1.8510698339997829 
H  2.607290263575823  0.35396143483744824  -2.5812277799984136 
C  -1.0182400108978193  -1.7107782276276715  3.486946322243423 
H  -1.3961795871765048  -2.097774495463308  4.279291963591676 
H  -1.5151070800967161  -0.9255347862175396  3.245909824450928 
H  -0.10358223375662945  -1.4732341990213746  3.6513093204779064 
C  -4.4986168104219395  -0.04571692952070271  2.303478305404532 
H  -5.093645364555592  -0.014966390781740543  3.018726013637755 
C  -3.264611422228027  1.8402789148823526  3.423158682477739 
H  -3.330503007868299  2.737672357958133  3.063444007677825 
H  -3.98053814478776  1.7258031288297564  4.067354244657828 
C  -0.5823012275969046  -2.3358441654582878  1.0709543912597843 
C  -0.07639166139979847  -3.0792931547265177  -1.2573175153667389 
H  0.04436372338717598  -3.8184620839379186  -1.8095392291135104 
C  1.113930553332346  -1.9226039709721092  -2.9273193558749226 
H  0.8086576120258385  -1.2200078178291163  -3.5216492952980865 
H  1.0098627935351077  -2.7727841788111767  -3.3816575180069464 
C  -1.7444598875372401  -4.775125070199294  1.605270755309752 
H  -2.1548480487636734  -5.5899438096934375  1.782348136401641 
C  -3.8724525380734285  -1.0368695893430024  0.3110024488478099 
C  2.7460453810055876  1.3463060880730873  -0.27517240195960846 
H  2.6256289356102824  1.9176843018810195  -1.0496129138544976 
H  3.6977890140014438  1.2927172243170435  -0.09798800441517244 
C  -2.718856293019139  -0.19770255901154282  0.21440695929823167 
C  -4.139639761887608  -2.0414675529149147  -0.7563517140323647 
H  -4.948008812268728  -2.5183406960210393  -0.5520050141079162 
H  -3.4064959655522893  -2.6592346626763295  -0.8050781133664512 
H  -4.2377901545710985  -1.5931773351670868  -1.6001122672035124 
C  2.0762158862023883  2.0124210574247154  0.9165717591325987 
H  2.6523936713671983  2.7217548022941545  1.2402718800347579 
H  1.9877502201383843  1.3590804793086906  1.6277104199540127 
N  1.5230763626399608e-16  -6.573296103455792e-17  -1.8699999999999997 
N  1.2376951348399539  0.15354589999032708  -2.387086520603341 
C  1.3706159911768536  0.17529764902594006  -3.703924368390439 
H  2.241280250303593  0.29963553107680563  -4.063484389758766 
C  0.3118597097968123  0.027366089409046113  -4.589639746097984 
H  0.45241506577327106  0.034709566441293194  -5.528881187502381 
C  -0.9419031666257469  -0.12998211899003942  -4.06187848281862 
H  -1.703650349510968  -0.24238413421341332  -4.618149879117363 
C  -1.0530398422421368  -0.11878698812685062  -2.668601622902438 
H  -1.9152727935116283  -0.19940149461310958  -2.2779605867975765 
66

Fe  0.0  0.0  0.0 
O  -2.002153830592372  1.6960673178142078  4.096435456614911 
H  -1.946344974487479  0.9431494949955628  4.416791857615882 
O  -0.010932389887341132  -1.1723789699238139  0.9324121952531133 
O  -2.286684992535788  -5.262852231315318  -1.7655997690235423 
H  -3.0337511155257113  -5.116620860546352  -1.4623724548121835 
N  -1.6507422635059152  -3.8805282089197717  2.6135931009585787 
O  -1.9210455983513037  -0.3380306349288207  -0.8223418948525607 
N  2.2514566011423867  -0.03395138966244264  -0.6241806024199764 
C  -1.3814913346474675  1.6828417641887545  1.2227402656006057 
H  -1.4394587577262672  2.4335679007651274  1.7694444778787952 
C  -2.501610212616945  0.7536679441149624  1.2360894717896143 
C  -1.2711756880424536  -4.554807850448067  0.33830996697032356 
C  -1.0820100285217071  -2.6940502704328204  2.379111851444631 
N  -4.7221718052991815  -0.9509532132334237  1.3491394741106253 
N  -0.3194786129037416  1.5443609945150771  0.5141103020194241 
C  -0.6912957161472054  -3.293349304520345  0.05612236075650509 
C  2.8117385336537906  -0.9817208691946975  0.37220012288960425 
H  2.5123101857593992  -1.8719039287658927  0.1701057762846053 
H  2.5130976541985937  -0.735425135552475  1.250814979756858 
H  3.770948095425957  -0.9503167460391002  0.34025943326527086 
C  -1.4105372237369882  -5.637357118028351  -0.7086028735423189 
H  -0.5352352728741538  -5.836632187175239  -1.0762163548405699 
H  -1.7476579183933818  -6.443313148178318  -0.2874960050406332 
C  2.5906117892204943  -1.7004576382820518  -2.5756590731471074 
H  3.1209622125492253  -1.7981108873941376  -3.381918356140419 
H  2.870394003699145  -2.3915236126846535  -1.955417788255168 
N  0.31262897831715697  -1.9154365620673128  -1.6975430412031163 
C  -3.4481859760371845  0.8480056569582383  2.3041268353873923 
C  0.6954435296278662  2.6012508416240046  0.6190849450391674 
H  0.4479752900847333  3.216233853140092  1.3277208853950224 
H  0.7286997662090083  3.098710191040084  -0.21233809313513577 
C  2.8895612921672273  -0.3297411916475861  -1.9528873030630045 
H  3.849941623470446  -0.24873420281650416  -1.8510698339997829 
H  2.607290263575823  0.35396143483744824  -2.5812277799984136 
C  -1.0182400108978193  -1.7107782276276715  3.486946322243423 
H  -1.3961795871765048  -2.097774495463308  4.279291963591676 
H  -1.5151070800967161  -0.9255347862175396  3.245909824450928 
H  -0.10358223375662945  -1.4732341990213746  3.6513093204779064 
C  -4.4986168104219395  -0.04571692952070271  2.303478305404532 
H  -5.093645364555592  -0.014966390781740543  3.018726013637755 
C  -3.264611422228027  1.8402789148823526  3.423158682477739 
H  -3.330503007868299  2.737672357958133  3.063444007677825 
H  -3.98053814478776  1.7258031288297564  4.067354244657828 
C  -0.5823012275969046  -2.3358441654582878  1.0709543912597843 
C  -0.07639166139979847  -3.0792931547265177  -1.2573175153667389 
H  0.04436372338717598  -3.8184620839379186  -1.8095392291135104 
C  1.113930553332346  -1.9226039709721092  -2.9273193558749226 
H  0.8086576120258385  -1.2200078178291163  -3.5216492952980865 
H  1.0098627935351077  -2.7727841788111767  -3.3816575180069464 
C  -1.7444598875372401  -4.775125070199294  1.605270755309752 
H  -2.1548480487636734  -5.5899438096934375  1.782348136401641 
C  -3.8724525380734285  -1.0368695893430024  0.3110024488478099 
C  2.7460453810055876  1.3463060880730873  -0.27517240195960846 
H  2.6256289356102824  1.9176843018810195  -1.0496129138544976 
H  3.6977890140014438  1.2927172243170435  -0.09798800441517244 
C  -2.718856293019139  -0.19770255901154282  0.21440695929823167 
C  -4.139639761887608  -2.0414675529149147  -0.7563517140323647 
H  -4.948008812268728  -2.5183406960210393  -0.5520050141079162 
H  -3.4064959655522893  -2.6592346626763295  -0.8050781133664512 
H  -4.2377901545710985  -1.5931773351670868  -1.6001122672035124 
C  2.0762158862023883  2.0124210574247154  0.9165717591325987 
H  2.6523936713671983  2.7217548022941545  1.2402718800347579 
H  1.9877502201383843  1.3590804793086906  1.6277104199540127 
N  -2.1065216138953466e-17  -1.6703267047786545e-16  -1.87 
N  -5.551115123125783e-17  -4.440892098500626e-16  -2.988380767002007 
49

Fe  0.0  0.0  0.0 
S  -1.7873958348196848  -0.0751895847245194  0.4501932381135882 
S  0.8250937207204005  -2.0278736273847997  -1.026947700231117 
O  1.1329425932226704  -0.20754961727216512  1.3427753953871322 
N  -0.17064047912338612  2.3106128293814847  -0.7660209332696035 
N  2.151270161363645  0.8047732778952166  -1.5048757788060878 
C  -2.0560903667139683  1.7035138283096978  0.8133119335707915 
C  -1.6196648351321694  2.5008601135133204  -0.38219757992357245 
C  -0.0150858897653591  2.9705010185678145  -2.1024897871910273 
C  1.335833120715862  2.862270832036144  -2.8011811237937922 
C  2.025978064762047  1.5238442282361513  -2.8266368195789506 
C  2.8583576187006883  1.6561602256462584  -0.49619022181828115 
C  2.1950138182747443  2.923884434741657  -0.0039938056286528386 
C  0.6967890359381577  2.9072705789908335  0.28857442810422884 
C  2.9828157757946907  -0.4417637187026968  -1.7244270193699966 
C  2.2081669889827857  -1.6375792549229642  -2.1538769470974084 
C  1.6201827342867536  -2.476360152783166  0.5377618309733772 
C  2.032687067757914  -1.3229264346579286  1.4247721988718047 
C  0.1654406967214501  -0.14775735423503575  2.4221056347242134 
C  -1.1452872446621738  -0.7228463362247537  2.0412730383379825 
H  -1.5313296596011217  1.9721402373803625  1.5709563769743091 
H  -2.9803127904224844  1.859719424665823  1.0128967856547737 
H  -2.165081644234748  2.2332110365469746  -1.1262423809587154 
H  -1.7819699210510607  3.432055510160061  -0.21884972303900938 
H  -0.2396038558575945  3.8986335679834787  -2.000604736192432 
H  -0.659022179547553  2.5865462903490566  -2.7030917863385504 
H  1.2529674844676428  3.19268201935102  -3.699060065314503 
H  1.9266706288541204  3.4566740270787717  -2.333759236522678 
H  1.5119886385208732  0.9619006728707481  -3.4100516122398505 
H  2.8979881973955024  1.6271509715603298  -3.2193269077761664 
H  3.7058150988439027  1.908618079299973  -0.8700865998134071 
H  3.0415609450102306  1.1064157844370466  0.2695144344224209 
H  2.3520341623433243  3.6095019222955202  -0.6594388165250005 
H  2.643248141407226  3.1996742949843764  0.7991343438924978 
H  0.5570254552121163  2.420265497291022  1.1029182632876209 
H  0.4088159909634741  3.809809331572833  0.4414298678364727 
H  3.4159187097630155  -0.6578587109954577  -0.8949636670185981 
H  3.670639330209527  -0.2534112331461143  -2.370198371457403 
H  1.8554682773869593  -1.467612832406986  -3.031207679521484 
H  2.7969099785907416  -2.3940870345681176  -2.2136311228832546 
H  2.387263532605952  -3.0229945667506835  0.35027400119136104 
H  1.002771217345686  -3.015572166773007  1.0351612305684612 
H  2.070591368366465  -1.628300293630574  2.3340892559270063 
H  2.9152177781384028  -1.0496719757000998  1.1700893256844311 
H  0.050485167284954086  0.7642169729198713  2.698919169187993 
H  0.5105532616656533  -0.6420098239228005  3.169857588065146 
H  -1.0697957796946098  -1.678188980075829  1.994237715901656 
H  -1.7822518098318745  -0.5143581958077661  2.7265971499987653 
O  0.0  0.0  -1.79 
51

Fe  0.0  0.0  0.0 
N  1.5655330174766142  2.1541116984418838  -0.501900448870479 
C  0.6927435365294315  3.2113132623568883  0.04901797994055301 
C  -0.661087998654989  3.095675644228761  -0.6242452342735081 
N  -1.1909786683739116  1.716543378320544  -0.5300887619750101 
C  -1.9757163165912746  1.4266864545716567  0.7094765397437472 
C  -1.4381185544969024  0.2064434784447678  1.4633164600213324 
C  -1.6270194667958555  -1.1271537751802927  0.7319130689597928 
N  -0.8074478251232999  -1.2090507653585612  -0.501315010985637 
C  0.05422765562650358  -2.4064015115104573  -0.6050614642459382 
C  1.4078308777092792  -2.148465420376691  0.03718300638635978 
N  1.9744975825561715  -0.9033270521636216  -0.5294237263848443 
C  3.2313256140447395  -0.5172726788005764  0.10355315318646947 
C  3.7381136016983243  0.880476052749017  -0.2890696543801981 
C  2.8581998655146075  2.0463073941919174  0.19116499679010163 
C  -2.117182682648471  0.11816258285325691  2.832374896806011 
N  0.0239289109410401  0.395834439201639  1.5608274993454914 
C  5.15411973995529  1.045174448681406  0.2820962101424412 
N  3.8631487508243767  0.9324939868927316  -1.7968349331986373 
H  1.8451598239026128  2.3614600037799613  -1.3841252611498802 
H  0.5954605383581786  3.097033305341956  0.9857650641054714 
H  1.0665886056583702  4.067145189096231  -0.12885148753940667 
H  -0.5661692634691619  3.3279836401066127  -1.5378998455801764 
H  -1.270639979209191  3.6927254429894143  -0.20737814418085865 
H  -1.7863919010245772  1.6085815260517244  -1.2595488711236669 
H  -1.9297613128700395  2.1845794399154927  1.278406817018203 
H  -2.880471655191009  1.262059820325722  0.4754080271835679 
H  -2.543515057516663  -1.214705136740749  0.49767479011060994 
H  -1.3810342661834412  -1.8384206612623928  1.3109593001389122 
H  -1.4214502482999158  -1.250846604773632  -1.2215549933115517 
H  -0.3675055240644221  -3.134526498562682  -0.16267722133263252 
H  0.18323025952169267  -2.6251511497000855  -1.519324880324788 
H  1.9933342066795627  -2.875844653519656  -0.14317930385906882 
H  1.3010361618354094  -2.053576651837678  0.9739685155967495 
H  2.277367898345554  -0.9762349716947765  -1.4248408733522664 
H  3.1113635839453373  -0.5422626833107218  1.043628283699458 
H  3.8926500061662366  -1.1511108856529224  -0.14860367483794776 
H  3.3372751940367267  2.8559906733446137  0.055828279444215576 
H  2.687801318443849  1.929362051697602  1.1164826352392239 
H  -2.003443109572114  0.9366550896290642  3.2970247820618486 
H  -1.7290935278459243  -0.5893569439308026  3.3313256630584585 
H  -3.0443439082637758  -0.051154972610207905  2.713739964651087 
H  0.25498241871701083  1.214455521904654  1.9820933530513933 
H  0.4539527809384454  -0.32452791792499364  2.0064179679008856 
H  3.0060481168530995  0.8333423940875817  -2.1902494155073553 
H  4.43171799962152  0.23195336522342083  -2.093276422726382 
H  4.233544765875927  1.7702258489121203  -2.0511899005011425 
H  5.108547637816972  1.0133854915849603  1.2274866827586055 
H  5.5141642430373325  1.8825413498085062  0.010246014819351298 
H  5.712778571435652  0.34411751931242235  -0.03333467260800814 
N  -3.287726323582693e-18  -6.8303262235240135e-18  -1.8699999999999997 
56

Fe  0.0  0.0  0.0 
S  -1.7873958348196848  -0.0751895847245194  0.4501932381135882 
S  0.8250937207204005  -2.0278736273847997  -1.026947700231117 
O  1.1329425932226704  -0.20754961727216512  1.3427753953871322 
N  -0.17064047912338612  2.3106128293814847  -0.7660209332696035 
N  2.151270161363645  0.8047732778952166  -1.5048757788060878 
C  -2.0560903667139683  1.7035138283096978  0.8133119335707915 
C  -1.6196648351321694  2.5008601135133204  -0.38219757992357245 
C  -0.0150858897653591  2.9705010185678145  -2.1024897871910273 
C  1.335833120715862  2.862270832036144  -2.8011811237937922 
C  2.025978064762047  1.5238442282361513  -2.8266368195789506 
C  2.8583576187006883  1.6561602256462584  -0.49619022181828115 
C  2.1950138182747443  2.923884434741657  -0.0039938056286528386 
C  0.6967890359381577  2.9072705789908335  0.28857442810422884 
C  2.9828157757946907  -0.4417637187026968  -1.7244270193699966 
C  2.2081669889827857  -1.6375792549229642  -2.1538769470974084 
C  1.6201827342867536  -2.476360152783166  0.5377618309733772 
C  2.032687067757914  -1.3229264346579286  1.4247721988718047 
C  0.1654406967214501  -0.14775735423503575  2.4221056347242134 
C  -1.1452872446621738  -0.7228463362247537  2.0412730383379825 
H  -1.5313296596011217  1.9721402373803625  1.5709563769743091 
H  -2.9803127904224844  1.859719424665823  1.0128967856547737 
H  -2.165081644234748  2.2332110365469746  -1.1262423809587154 
H  -1.7819699210510607  3.432055510160061  -0.21884972303900938 
H  -0.2396038558575945  3.8986335679834787  -2.000604736192432 
H  -0.659022179547553  2.5865462903490566  -2.7030917863385504 
H  1.2529674844676428  3.19268201935102  -3.699060065314503 
H  1.9266706288541204  3.4566740270787717  -2.333759236522678 
H  1.5119886385208732  0.9619006728707481  -3.4100516122398505 
H  2.8979881973955024  1.6271509715603298  -3.2193269077761664 
H  3.7058150988439027  1.908618079299973  -0.8700865998134071 
H  3.0415609450102306  1.1064157844370466  0.2695144344224209 
H  2.3520341623433243  3.6095019222955202  -0.6594388165250005 
H  2.643248141407226  3.1996742949843764  0.7991343438924978 
H  0.5570254552121163  2.420265497291022  1.1029182632876209 
H  0.4088159909634741  3.809809331572833  0.4414298678364727 
H  3.4159187097630155  -0.6578587109954577  -0.8949636670185981 
H  3.670639330209527  -0.2534112331461143  -2.370198371457403 
H  1.8554682773869593  -1.467612832406986  -3.031207679521484 
H  2.7969099785907416  -2.3940870345681176  -2.2136311228832546 
H  2.387263532605952  -3.0229945667506835  0.35027400119136104 
H  1.002771217345686  -3.015572166773007  1.0351612305684612 
H  2.070591368366465  -1.628300293630574  2.3340892559270063 
H  2.9152177781384028  -1.0496719757000998  1.1700893256844311 
H  0.050485167284954086  0.7642169729198713  2.698919169187993 
H  0.5105532616656533  -0.6420098239228005  3.169857588065146 
H  -1.0697957796946098  -1.678188980075829  1.994237715901656 
H  -1.7822518098318745  -0.5143581958077661  2.7265971499987653 
C  -0.014594022419507774  0.002592956332436294  -3.0675845103503243 
C  0.0821088506287384  -1.0309802557955767  -4.062583560357708 
C  -0.008439160920600597  -0.0019301592199184037  -5.1188752086926215 
C  -0.09506452078628154  1.037070003279707  -4.077804020274705 
O  0.0  0.0  -1.79 
O  0.2196430304569046  -2.27130730677897  -4.038795412514036 
O  0.006695395259891934  -0.012470786921568722  -6.350889766389435 
O  -0.19034957221914506  2.2770255491038904  -4.026011131252282 
61

Fe  0.0  0.0  0.0 
N  1.1979269684080043  -2.41032712109428  -0.22170464627103786 
N  2.789069983546243  -0.23341380092822633  -0.4147688114089474 
N  1.553179624998322  2.1865953327893415  -0.1934909445269732 
N  -1.3771163830141935  1.2312115368306746  -0.35532489598809713 
N  -1.3739902103921329  -1.0074797485257359  0.7705204867861083 
C  2.4477739007504993  -2.602375892552648  -0.3978971690845303 
H  2.7864401339447658  -3.4839305064318102  -0.4981626429145942 
C  3.3641594387175497  -1.4437146088287656  -0.44342073884970246 
C  4.747479483028505  -1.5886757360167554  -0.5125173133807259 
H  5.143957455637608  -2.451270323477517  -0.5511898478098757 
C  5.533758926344291  -0.44672848747690574  -0.5235431272411536 
H  6.480011916622307  -0.519031004830262  -0.570699403326967 
C  4.931606457258204  0.8032382872043993  -0.46474647626218313 
H  5.453542485084038  1.5970309511039464  -0.46389231196411185 
C  3.5434748727790715  0.8624286618000856  -0.4078485525155696 
C  2.818425441642747  2.1531014134124127  -0.32570002450468305 
H  3.3057892781093723  2.967357409703613  -0.3720158253544803 
C  0.8993676204560821  3.455775331233041  -0.07009704570329212 
C  1.5831871740646535  4.558891422550615  0.45321881224371274 
H  2.4668226186891387  4.4527055156081365  0.7847708657286673 
C  0.9727575112466669  5.8158103115601145  0.49001532298921513 
H  1.4427440662783557  6.561953268759225  0.8426508650317205 
C  -0.3069138178243371  5.968795751940321  0.015048340362712983 
H  -0.7121574242120844  6.827923509659892  0.0033840616626612773 
C  -1.004851790340281  4.860447087768317  -0.4471441143014345 
H  -1.9024231616595204  4.970763364258042  -0.7381475550535007 
C  -0.42863350948346995  3.5856125884732983  -0.49868858261413695 
C  -1.2494645977090262  2.482035496102914  -1.1251398702636852 
H  -2.1595533701716225  2.8330275679750967  -1.2943729690369352 
H  -0.8503384869998719  2.2625111211183535  -2.004324843143579 
C  -1.8359893989436336  1.4087698078130548  1.0365224252571488 
H  -2.747410172575512  1.794451585651842  1.04628918702249 
H  -1.229942429560968  2.0273827308825187  1.5168070724337357 
C  -1.8384434079108574  0.021297902251927004  1.7329524857216307 
H  -1.2395679758328066  0.039629562297332416  2.5209959090767833 
H  -2.7529897022957224  -0.1970654286463064  2.0430805095213826 
C  -2.3428651364275703  0.334537089716613  -1.0332784719600798 
H  -2.0878080760309965  0.22422407943926106  -1.9835062950137972 
H  -3.2492443183824116  0.732318871889075  -1.0003463859257573 
C  -2.349923419582609  -1.0357998448394992  -0.332595950107095 
H  -3.253878149199278  -1.2302018923936469  0.0210246668122397 
H  -2.108807547618114  -1.746629129339339  -0.9784777075397126 
C  -1.2174172339062106  -2.3275730193160276  1.427825651415542 
H  -2.0542026588321414  -2.5502001035129838  1.9074606001145396 
H  -0.49070335203521415  -2.27052798293716  2.0974178390346343 
C  -0.9005123815430015  -3.437854107722643  0.45200987511590185 
C  -1.8167190817731949  -4.484794683559848  0.3089044135885298 
H  -2.6057058499695813  -4.487532674695319  0.8383892887413159 
C  -1.598508167118215  -5.518611182557169  -0.5900623339201634 
H  -2.23966439110958  -6.213940778738558  -0.6770652597983166 
C  -0.449638437424819  -5.5381653198696625  -1.3598351509955562 
H  -0.30890124676080305  -6.23468057305212  -1.9895289855280043 
C  0.4940876179278736  -4.5361774854357995  -1.207652457843606 
H  1.2953472613612833  -4.5609650962020885  -1.7182122762365781 
C  0.2749908512753016  -3.488779857391919  -0.30496573720878883 
S  0.001598153089771348  0.002308774764935309  -3.269406477431333 
O  0.0  0.0  -1.79 
O  -1.0722374202840794  0.8688821587429005  -3.786311731358813 
O  1.308777334564755  0.5078528882807849  -3.7966651395772137 
O  -0.2381380673704464  -1.379043821788621  -3.7409408649304825 
