63

Ni  0.0  0.0  0.0 
P  1.400283954239275  1.455783241935419  -1.3181675454888177e-14 
N  1.4002839542392822  -1.4557832419354195  1.0436096431476471e-14 
C  2.3965438278435203  -1.4260961609503857  -0.8106836815112767 
H  2.97580025198383  -2.153887479382804  -0.8243994354676447 
C  3.0494928147321323  1.9094901029388898  -2.4169351147166775 
H  3.5098393453932877  2.6375128809665966  -1.9704137083081195 
H  2.38907502308715  2.279809254492846  -3.023114111772095 
C  2.4068842651492957  0.9870905476213272  -1.4205926623675673 
C  0.5211484922342949  5.890716354928624  -0.8987469124963652 
H  0.37123328332567684  6.784761105210022  -1.1072746675606546 
C  2.491212151693084  1.4050305351644883  1.4486973219950583 
C  4.632826931684672  1.0092295268811764  2.481328633724302 
H  5.523632719948376  0.7518577154692818  2.413333499439136 
C  1.95998639933286  1.72318500119904  2.7042689829414224 
H  1.0617864983335297  1.9473354520355084  2.7837596945661716 
C  1.4337089774617013  -2.526926352448821  1.090669612954493 
C  1.5170212514383494  4.2092662430660415  0.5329284622980419 
H  2.0308651630837264  3.9919547739634  1.2774684611304985 
C  1.0112706804888951  3.2074892113005493  -0.29088337824046917 
C  1.1539179235223371  -3.892366816207222  0.4424988977360758 
H  0.2967006352443782  -3.8715463745872873  0.011181903069558796 
H  1.1540394300550874  -4.573132383808085  1.1204239652806003 
H  1.8335612361214797  -4.08472406207558  -0.20565733929418126 
C  2.6682154236208175  -0.30678457797485015  -1.7133504717858672 
C  3.5380450338204352  -0.43948135551378487  -2.9488820919602885 
H  3.022239271801863  -0.7510213375217157  -3.710086838056209 
H  4.2788280521271576  -1.0457313037043192  -2.7952608365710834 
C  2.7722603271112374  1.7056023286811475  3.8305634097582724 
H  2.4172645009440306  1.9277138289963522  4.660230924387827 
C  4.111060272363848  1.3584945207026728  3.721222583750717 
H  4.65686997428016  1.3597616770669378  4.475773213999461 
C  2.81733006103655  -2.509373883603227  1.78588890779937 
H  2.9774280577911854  -1.6394225999792424  2.157392468423148 
H  3.4992452917745984  -2.714612727816588  1.1432925999096832 
H  2.830352999940239  -3.164711891706437  2.487234527446092 
C  0.24259458095025366  3.543078051676594  -1.4167232976842474 
H  -0.11158875525020462  2.874066613747698  -1.9557951113401173 
C  0.015119157684702067  4.884146679726238  -1.7208345547452113 
H  -0.4768471105692118  5.108175625523418  -2.477952479737975 
C  1.2450449763934532  5.554417340145964  0.22540727304860425 
H  1.5570821876375065  6.226013067336905  0.7882621815444892 
C  3.8324349524878913  1.0402345891045752  1.3405352844475582 
H  4.1906243654204225  0.8181877137948574  0.5117377279669351 
C  4.037389139140473  1.0169478187781218  -3.164916012337457 
H  4.933033775431374  1.1271840375895508  -2.809384970731336 
H  4.047764467240153  1.2372982258713643  -4.109851878235606 
C  0.36557485921682087  -2.1844172235917583  2.1322419350190023 
H  0.5685631200302047  -1.3355564114854848  2.533090806343653 
H  0.3521831703195706  -2.863919141531735  2.8107117399362185 
H  -0.4938803732583823  -2.141025849669901  1.707049858375772 
Br  -1.5839191898578664  1.5839191898578664  0.0 
C  -1.308147545195113  -1.308147545195113  0.0 
C  -2.5481111008682706  -1.081588847540519  0.5874691967409313 
H  -2.7399447190521347  -0.23895174706744582  0.9782000501948406 
C  -3.514692573752534  -2.090568128666735  0.6049610958635798 
H  -4.3504064840370384  -1.9365173000894942  1.0287619599160838 
C  -3.2692344052199704  -3.300825455744854  0.016423527177974795 
H  -3.920165040096455  -3.990528127682657  0.045080339651694334 
C  -2.0939695739763726  -3.5035118821402764  -0.6007549227026172 
H  -1.9425337635726068  -4.327915038834382  -1.0474288760065322 
C  -1.0854604411866036  -2.53050399443706  -0.5998012209931928 
H  -0.24896772463074335  -2.712575304189299  -1.0129111498427692 
