86

Ni  0.0  0.0  0.0 
P  1.4908609702115077  1.3628769451054636  2.722551559927171e-15 
N  1.490860970211508  -1.3628769451054632  1.1102230246251565e-16 
N  3.8005838205373057  -1.7064837884685398  0.09885110964013433 
C  2.7274023515223025  -0.9083800352967301  0.09794351065966855 
C  1.630542257302225  3.1335184682939445  0.27667098582515404 
C  1.9913908452529492  3.974871104067871  -0.8086226052598839 
C  2.8971737125829673  0.5506260893142705  0.2803757263212772 
C  2.029462951896322  3.642190573644111  -2.3121272408938207 
C  2.2027754865860487  5.812569033433161  0.7764548798540315 
C  1.7919168608991969  4.962272226254927  1.781833216303173 
H  1.7288238444664938  5.308224134600926  2.6439899006646614 
C  1.468917852102163  3.644431018029765  1.5935963171048786 
C  -0.5531867965523407  2.4374971301924364  2.44095473022169 
H  -1.0855490633172185  3.2089198355039894  2.233887382108118 
H  -0.9370872841666236  1.9760855792388483  3.1903040521377948 
H  -0.5294126782140443  1.8502664210119621  1.683069108579045 
C  5.203989133671525  -1.3314377787494118  -0.1660429779881697 
H  5.632610037088461  -2.066744879364025  -0.6308380284564058 
H  5.6560848867368545  -1.2224154561298874  0.684762794930054 
C  1.299699050363738  -2.7927209798133843  -0.15733885982265228 
H  1.4252670962718015  -3.038817981603994  -1.0879268844374756 
H  0.39688214122126886  -3.0332238155075006  0.10132272331164671 
C  0.8702584007944243  2.8793192970157246  2.7889185689377873 
C  2.293357255352081  -3.53115882529482  0.7055443362242508 
H  2.166571407384831  -3.291955182463535  1.6371316407810999 
H  2.1637503659750053  -4.487512580988545  0.6149538389493856 
C  2.513094332623246  7.296088827543071  1.082416583794636 
C  2.267130207395721  5.304084212049398  -0.48955380745102417 
H  2.5096068749082607  5.877950816667528  -1.179093230411079 
C  3.6788049774001466  -3.154245952239911  0.26052071258459275 
H  4.323076964823098  -3.4612616197238313  0.916719764809992 
H  3.8777442754096545  -3.589745526967891  -0.5816719234074621 
C  5.40800378368989  -0.09241802273664113  -0.9682632262915553 
H  4.750569269831327  -0.06951732351204298  -1.680338326237206 
H  6.286325023850376  -0.12725613498919475  -1.379289387280925 
C  5.30021032431224  1.1840410047989516  -0.16476548445384165 
H  6.132474487502566  1.3341665577586626  0.30787718291514243 
H  5.1628522712339295  1.9308589318725065  -0.7698920819986049 
C  4.17288862178126  1.139524050999205  0.8230197451518122 
H  3.9918535014195466  2.0420371131046173  1.130422653278484 
H  4.452856813112451  0.6190322651871649  1.591682351725693 
C  0.7347801253276712  3.7848585420900474  4.028832724235151 
H  1.6011471708817404  4.109349939929181  4.2840157274041575 
H  0.3560377556335077  3.2808179920851144  4.75358891175562 
H  0.16244335785867747  4.5259888426850425  3.8216678571772427 
C  1.6903412644035067  1.6721428194118073  3.2390404954583083 
H  1.706811014332212  1.0181783597437106  2.5368800274538046 
H  1.2921545109331638  1.2906757604325612  4.023002976878504 
H  2.5869772451967408  1.9508218126723542  3.4376429794867605 
C  2.0092538242840314  2.227542650422542  -2.7338175354063514 
H  2.7931104889610454  1.784995652936039  -2.4014312476971313 
H  1.9960405605490097  2.1809998534166897  -3.6925352142400905 
H  1.226400537182982  1.799826371932784  -2.3810256902767257 
C  3.503922897032103  7.371876594275016  2.2353120822528822 
H  4.196496999805328  6.71933308461048  2.103318559068747 
H  3.0485766664767766  7.192450589690957  3.0612373628915717 
H  3.8923529039120988  8.248806271816456  2.2670568519366086 
C  3.246368647793679  4.245968924987727  -2.944371323302967 
H  4.034511944589246  3.8694798796320615  -2.546256261488641 
H  3.2404450041677433  5.197080718062848  -2.8062306793214704 
H  3.2436559144829484  4.059635367206141  -3.8860170349814496 
C  1.2786259764042323  7.979070286979213  1.5906808197589997 
H  1.5187971921163685  8.817903289551968  1.9929284560952887 
H  0.8505009845840067  7.422510923550182  2.2433157838533497 
H  0.6761480541777452  8.136199656412803  0.8590042624667231 
C  0.8326033472826444  4.278744451905562  -2.927213850172821 
H  0.8516792155075097  4.145662114097019  -3.8782523470881194 
H  0.8379810422414132  5.220132252622023  -2.73700388971029 
H  0.037158268002193795  3.883204544993214  -2.5636452763269677 
C  3.059418957034497  8.013248350646137  -0.05665033398698521 
H  2.3658169353521448  8.164591427319902  -0.7040242975205002 
H  3.7605051588904104  7.494580584976878  -0.4555164097855151 
H  3.4119863590326247  8.856681005463738  0.23530124390843649 
Br  -1.5839191898578664  1.5839191898578664  0.0 
C  -1.308147545195113  -1.308147545195113  0.0 
C  -2.5481111008682706  -1.081588847540519  0.5874691967409313 
H  -2.7399447190521347  -0.23895174706744582  0.9782000501948406 
C  -3.514692573752534  -2.090568128666735  0.6049610958635798 
H  -4.3504064840370384  -1.9365173000894942  1.0287619599160838 
C  -3.2692344052199704  -3.300825455744854  0.016423527177974795 
H  -3.920165040096455  -3.990528127682657  0.045080339651694334 
C  -2.0939695739763726  -3.5035118821402764  -0.6007549227026172 
H  -1.9425337635726068  -4.327915038834382  -1.0474288760065322 
C  -1.0854604411866036  -2.53050399443706  -0.5998012209931928 
H  -0.24896772463074335  -2.712575304189299  -1.0129111498427692 
