116

Fe  0.0  0.0  0.0 
Br  -4.489993338638185  -3.403357349036601  1.649338652117357 
Br  -5.813567800560332  -0.3351991899679049  1.105224937267514 
O  6.102087830362061  2.0272145847635326  -1.0061121798757198 
O  7.721451441084619  1.1195656694650078  0.2882210008876486 
C  6.446444884557399  1.314438431470824  -0.11757064200415929 
C  8.770178667279296  1.857249320647674  -0.4723285673955979 
H  8.47323976566873  2.0181371022818535  -1.3819023194526492 
H  9.588603717575094  1.335085583318759  -0.5039082834649184 
C  9.016240120208247  3.156964183597813  0.23085846064814658 
H  9.86489129807019  3.5132429421201854  -0.04915213654290112 
H  9.02367386381814  3.014199468965736  1.1760319027803117 
H  8.31942012764286  3.7787335111879  0.0015022720912430143 
O  6.112621508982818  2.1450985887832474  2.667730044990639 
O  5.686734594345601  -0.00581908486158506  3.1384756207989484 
C  5.848583169423224  1.0487557991871745  2.3123236537378706 
C  5.725678034973818  0.28737090148825173  4.600519112059117 
H  4.83408274819382  0.47961242337361226  4.92983432861446 
H  6.29303968572243  1.0540844016851956  4.776075814795187 
C  6.277461654325116  -0.9325770168381262  5.27406350850728 
H  6.253078518647489  -0.8118477429525593  6.225671560764925 
H  7.183969820198228  -1.072712143294458  4.9918093118362075 
H  5.746604112989172  -1.69766810761257  5.036121007838879 
N  -1.8207395663025097  -0.6811371849726819  0.12534832497102524 
N  -0.6845619514654075  1.794211064318034  -0.12500672745745267 
N  1.8235922777633553  0.6783949562386439  0.12513074544982133 
N  0.6817092400045619  -1.791468835583996  -0.12547234296339388 
C  -2.1796412382373482  -1.9800332276633184  0.4440821326616776 
C  -3.5526337307842226  -2.0343810274780623  0.841716502485538 
C  -4.059081401547867  -0.8022966304202485  0.6362034486306456 
C  -3.010419010169124  0.04575801646318293  0.16013161076661653 
C  -3.106716932011027  1.3708841267157696  -0.2691598894704379 
C  -1.9866104000532727  2.16224987343399  -0.43621937584186854 
C  -2.0072535772908173  3.5293463122750355  -0.7872608208902774 
H  -2.7386832223503443  3.9970067788307064  -1.1209858309644793 
C  -0.7611082549886486  4.047880912907778  -0.5503070413233201 
H  -0.5032554574452873  4.9367972304066186  -0.6509339029625559 
C  0.053814030699684726  2.9840765949317882  -0.1259384028211997 
C  1.3267002855796557  3.099502622961486  0.2968383872121786 
C  2.1681632975429297  1.9812395261118163  0.4602159123552682 
C  3.529237247440637  2.0526892735471742  0.8388630389801516 
H  3.966116566184726  2.8003030194799594  1.1791989285746058 
C  4.07020672260282  0.8719359481940656  0.6270248186082648 
C  2.9939329478381884  -0.018950541720569064  0.14017974690529153 
C  3.0990710995470856  -1.3422343219157364  -0.2691272480601311 
C  2.0002086423949352  -2.1501691814955937  -0.43143320277903613 
C  2.011143519560629  -3.54151946628963  -0.7450233548325154 
H  2.7564585628019165  -4.022710070323006  -1.0250418344159764 
C  0.7796452106100333  -4.050392524421165  -0.5724039302022523 
H  0.5138204865670688  -4.93301302186923  -0.7011915211107447 
C  -0.03737036771366962  -2.9599348437947786  -0.1533559478191975 
C  -1.3628647589151333  -3.085364710030956  0.23954131298753684 
C  -4.427217184935344  2.0429292926363827  -0.491783848175587 
C  -5.22517034557344  1.678844277309146  -1.572555861618681 
H  -4.952348222541909  0.9814704733340933  -2.125504102156556 
C  -6.4181364228287645  2.332170399523036  -1.8412502168831832 
H  -6.945847033531966  2.1007220152116246  -2.5712846385037613 
C  -6.795189474200063  3.3617509399883927  -0.9613203747101503 
H  -7.588471130582889  3.822722504883923  -1.1176908322917731 
C  -6.0347694757891635  3.702650283624318  0.10950496283345094 
H  -6.310662896039147  4.381367305540321  0.6826705626597468 
C  -4.8732034375622755  3.049403616221709  0.33857809605791855 
H  -4.360026079571982  3.2850114219622375  1.0777653193783958 
C  1.8203205296990859  4.490705860671529  0.5789014404122894 
C  1.1989601972104686  5.268688338913814  1.550032091127025 
H  0.5084454400464403  4.911395335399076  2.0600045411457666 
C  1.6089408059930619  6.579598196508915  1.7575592837603058 
H  1.1944777946971172  7.1002577667205165  2.4067475801848244 
C  2.641735281478338  7.113710032604585  0.9953715588856492 
H  2.9161417048246205  7.991846678978893  1.1340883751725779 
C  3.2630029455163987  6.336995264976054  0.025154320650598798 
H  3.9536368478311426  6.694434130468806  -0.48569820249944096 
C  2.851568802519738  5.024900950638098  -0.18378860518948203 
H  3.2676044931804658  4.505473044946018  -0.8324575923353078 
C  5.562267373245596  0.626219183990413  0.8961854706225248 
H  5.724781356550799  -0.3376027290390335  0.8322791705063818 
C  4.447815266017297  -1.9636840872814194  -0.4936649120265813 
C  5.1980544431764555  -1.6139509398021497  -1.5469863219531974 
H  4.854970710340476  -1.0190608941148738  -2.173769375174583 
C  6.514511082502744  -2.1392985183698814  -1.725708756098307 
H  7.047553502107352  -1.8563027341714322  -2.4326298443592025 
C  6.9795734893605585  -3.08195027193758  -0.8158720019366814 
H  7.8200663505787755  -3.4647957891749392  -0.9290580000657389 
C  6.257739754320242  -3.4181048754936576  0.16347256024039072 
H  6.6087951395386195  -4.020956896973244  0.7789706810394332 
C  4.953412173458425  -2.935878074968203  0.3815842624898202 
H  4.439578309779322  -3.2540710319733384  1.0892606028099796 
C  -1.9302377269222617  -4.482137672745543  0.31339221551622126 
C  -1.6771134783028452  -5.281548547497883  1.3998983720052456 
H  -1.1101811293087265  -4.976515352041744  2.0718652397404225 
C  -2.2523389535416563  -6.531505865346443  1.507143354140182 
H  -2.118814243041701  -7.04749662384003  2.2688589039585616 
C  -3.0212447343535356  -6.9997977059932905  0.47960673570867207 
H  -3.4041132180959375  -7.845139576556425  0.5362722987043256 
C  -3.2323642782503876  -6.235313037202759  -0.6267383955089874 
H  -3.7425662104276256  -6.5678750951744975  -1.3295393602210555 
C  -2.681593512680518  -4.9557639058317156  -0.7088688052315122 
H  -2.8310785334072923  -4.431241133603473  -1.462127213742373 
C  0.009511170568017563  -0.011368665152474963  3.0675845103503243 
C  -0.9351350019469375  -0.4417971019886697  4.062583560357708 
C  0.002525120930193858  -0.008280622920163516  5.1188752086926215 
C  0.9468640577786527  0.4335895650287742  4.077804020274705 
O  0.0  0.0  1.79 
O  -2.0794382580097026  -0.939689562452093  4.038795412514036 
O  -0.014148870468513874  -0.0003978801258630593  6.350889766389435 
O  2.069821781148291  0.9679442676104868  4.026011131252284 
O  0.0  0.0  -1.79 
S  -0.726448604961612  -0.03240627438686061  -3.1287587899728955 
C  0.057554532763358826  -1.339824358888451  -4.037390729954972 
H  1.023080801525856  -1.176615931840033  -4.076801181233169 
H  -0.3059854740759113  -1.3687419397211373  -4.947384096384688 
H  -0.11167283118558155  -2.1951510059362764  -3.5906737433282974 
C  -0.07383840811130783  1.3392963264723652  -4.058769653222912 
H  -0.3211526680848864  2.179482358277457  -3.618835182223726 
H  -0.4441817160824891  1.3250416162050143  -4.966192937846001 
H  0.9026443682125735  1.268919209817922  -4.103520396168831 
