42

Fe 0.000000 0.000000 0.000000
Hg 0.000000 0.000000 0.000000
O 1.850702 0.016344 -0.035000
O 0.091395 -1.847386 -0.052344
N -0.098951 1.844801 -0.052368
N -1.843146 -0.013760 0.139712
C 2.660329 1.005330 0.025285
C 4.058718 0.753068 0.069796
C 4.965385 1.772746 0.133123
C 4.548769 3.111826 0.153761
C 3.213472 3.400675 0.108383
C 2.247426 2.377080 0.044615
C 0.872261 2.701793 -0.019736
C -1.458245 2.340928 -0.213130
C -2.407719 1.304641 0.390059
C -2.643668 -1.031428 0.094472
C -2.243741 -2.380178 -0.052564
C -3.211725 -3.401463 -0.122235
C -2.848681 -4.713587 -0.246331
C -1.488357 -5.050104 -0.301790
C -0.520671 -4.088057 -0.235148
C -0.851033 -2.710920 -0.111138
H 4.371980 -0.279372 0.053626
H 6.021996 1.548525 0.168022
H 5.281292 3.902608 0.203905
H 2.875305 4.427919 0.121553
H 0.624303 3.765292 -0.054615
H -1.584179 3.321282 0.262751
H -1.665585 2.446444 -1.286168
H -2.471755 1.455227 1.475783
H -3.416066 1.394063 -0.032926
H -3.717002 -0.849308 0.187015
H -4.256377 -3.125264 -0.076056
H -3.597458 -5.488791 -0.300478
H -1.205462 -6.088605 -0.398608
H 0.527780 -4.339342 -0.277335
Hg 0.000000 0.000000 0.000000
O 0.000000 0.000000 2.500000
H 0.000000 -0.000000 3.411391
Hg 0.000000 0.000000 0.000000
O 0.000000 0.000000 -2.500000
H 0.000000 -0.000000 -3.411391
