61
64
Cr 0.000000 0.000000 0.000000
O 0.004000 0.080600 -1.745600
N 1.522500 1.450600 -0.032600
C 0.458600 0.846700 -2.722000
C 0.281500 0.398600 -4.057100
H -0.237500 -0.539300 -4.197400
C 0.730100 1.141300 -5.104100
H 0.589800 0.801000 -6.119700
C 1.370600 2.379700 -4.886100
C 1.795200 3.167500 -5.974200
H 1.634700 2.788600 -6.973400
C 2.381000 4.386100 -5.779000
H 2.695600 4.988900 -6.617500
C 2.561700 4.859800 -4.473400
H 3.011600 5.829800 -4.318800
C 2.168000 4.114100 -3.396500
H 2.309300 4.528900 -2.410800
C 1.564100 2.844500 -3.553400
C 1.126000 2.039300 -2.465800
C 1.287000 2.504300 -1.037500
H 2.121200 3.219100 -0.978400
H 0.365300 3.017300 -0.739100
C 2.735500 0.690600 -0.339800
H 3.636200 1.250500 -0.037500
H 2.784600 0.545300 -1.424300
C 1.653900 2.124400 1.258800
H 2.428300 2.905400 1.216100
H 1.921600 1.418300 2.043000
H 0.697900 2.578500 1.518600
O -0.004000 -0.080600 1.745600
N 1.532300 -1.439000 0.040500
C 0.439000 -0.853800 2.722200
C 0.244000 -0.415400 4.058100
H -0.278200 0.520700 4.198400
C 0.680900 -1.164500 5.105400
H 0.527900 -0.831100 6.121600
C 1.325200 -2.400900 4.887100
C 1.738000 -3.195400 5.974700
H 1.567300 -2.822700 6.974600
C 2.326100 -4.412700 5.778200
H 2.632700 -5.020300 6.616200
C 2.520200 -4.878700 4.471700
H 2.970400 -5.848400 4.316000
C 2.138600 -4.126000 3.395300
H 2.288400 -4.535300 2.408700
C 1.534600 -2.856600 3.553800
C 1.110900 -2.043500 2.466300
C 1.294700 -2.499200 1.037700
H 2.137500 -3.204700 0.986300
H 0.382400 -3.020900 0.725200
C 2.735300 -0.670400 0.364900
H 3.644300 -1.224000 0.075500
H 2.767900 -0.524700 1.449900
C 1.684500 -2.106400 -1.252100
H 2.465700 -2.880100 -1.203700
H 1.954600 -1.394800 -2.030600
H 0.736000 -2.568400 -1.524600
O -1.200000 -1.200000 0.000000
H -1.762337 -1.762337 -0.445183
O -1.200000 1.200000 0.000000
H -1.762337 1.762337 -0.445183
