37
40
Fe 0.000000 0.000000 0.000000
S 2.269900 0.212900 -3.574600
C 0.619400 0.075300 -3.095600
O -1.964400 0.000000 -0.035600
N -0.035600 0.000000 -1.964400
C -2.417100 -0.141400 -1.202700
O -3.579800 -0.295300 -1.540800
N -0.225700 0.036500 -4.172600
C 1.748200 0.212700 -5.242500
H 2.480600 0.286800 -6.019600
C -1.361500 -0.084600 -2.308100
C 0.414100 0.114600 -5.382400
H -0.145800 0.093800 -6.298700
C -1.496200 -0.065100 -3.670700
H -2.372200 -0.114400 -4.280900
O 0.000000 0.000000 1.900000
H -0.000000 0.000000 2.811391
S -0.703661 2.062675 0.000000
O 3.040441 -1.307958 0.120192
N 1.140630 -0.018631 0.000000
N -0.436970 -2.044043 -0.000000
C 1.027174 2.308806 0.548335
H 1.328145 3.309500 0.230971
H 1.035618 2.256548 1.639220
C 1.889481 1.218841 -0.057747
H 2.113467 1.464328 -1.107812
H 2.844155 1.103815 0.477779
C 1.810828 -1.158367 0.073862
C 0.872551 -2.327875 0.096741
C 1.345087 -3.630949 0.199328
H 2.412587 -3.776890 0.269871
C 0.443909 -4.676588 0.207315
H 0.780039 -5.701856 0.289207
C -0.909353 -4.377171 0.105928
H -1.653769 -5.159697 0.106007
C -1.300232 -3.053692 0.003049
H -2.345603 -2.781877 -0.081212
