89
92
Mg 0.000000 0.000000 0.000000
O 0.718000 0.121400 -3.059400
O -3.063000 -0.119400 0.713200
C -4.143600 -0.203700 -0.084300
N -1.954500 0.000000 -0.045500
N -0.045500 0.000000 -1.954500
C -6.599700 -0.387200 -0.277800
H -6.518000 -0.318800 -1.351200
C -3.730200 -0.136100 -1.399500
H -4.324500 -0.177100 -2.286000
C -1.391700 0.253300 -3.723300
H -2.275400 0.352100 -4.315000
C -0.260300 0.543100 -6.585000
H -1.335700 0.535700 -6.501800
C -0.074700 0.274700 -4.136100
C 0.531600 0.418100 -5.441300
C 1.923600 0.427000 -5.562000
H 2.533300 0.330100 -4.676300
C 0.334700 0.673300 -7.824200
H -0.280000 0.768500 -8.705800
C -6.817700 -0.556800 2.485500
H -6.905200 -0.622500 3.558900
C -7.841400 -0.517300 0.312300
H -8.726100 -0.552100 -0.304400
C -5.452100 -0.340400 0.516600
C 1.716700 0.681100 -7.938100
H 2.176100 0.782200 -8.909100
C -7.953800 -0.602600 1.691700
H -8.926400 -0.704000 2.147400
C -2.331400 -0.012100 -1.313400
C -5.571200 -0.426200 1.906200
H -4.682400 -0.389800 2.517800
C 2.507800 0.558100 -6.806200
H 3.583200 0.563800 -6.894700
C -1.311500 0.080400 -2.329300
O 0.000000 0.000000 1.900000
H -0.000000 0.000000 2.811391
P -0.307803 -4.688350 0.497907
O -1.338038 -2.930874 0.112367
O -0.528254 1.949251 -0.000000
N -0.537790 -1.931521 0.000000
N 1.066044 -0.017730 0.000000
N 1.628097 1.168545 0.008872
C 1.075367 -3.610144 0.198396
H 2.070606 -4.017122 0.226137
C 0.808590 -2.278014 0.048234
C 1.702897 -1.154578 0.001473
C 3.190729 -1.280783 0.013012
H 3.625390 -0.285112 -0.015373
H 3.528937 -1.850187 -0.851578
H 3.521688 -1.795087 0.914704
C 0.713479 2.140296 0.010422
C 1.245386 3.544460 0.042091
H 0.694097 4.156638 -0.667594
H 2.304682 3.544284 -0.191162
H 1.092236 3.954962 1.039005
C -1.113896 -4.622846 2.130129
C -1.016582 -3.504785 2.946385
H -0.515907 -2.607705 2.607372
C -1.589162 -3.526002 4.206151
H -1.517660 -2.650147 4.832153
C -2.256762 -4.656279 4.647361
H -2.705733 -4.669246 5.629771
C -2.350817 -5.773733 3.831275
H -2.871311 -6.655399 4.176164
C -1.771767 -5.764132 2.576347
H -1.822767 -6.636235 1.937616
C -1.381183 -5.269094 -0.850308
C -2.750886 -5.403323 -0.675933
H -3.200699 -5.134361 0.268228
C -3.525150 -5.877160 -1.719191
H -4.590252 -5.993995 -1.585499
C -2.938714 -6.195833 -2.933560
H -3.547457 -6.567717 -3.744365
C -1.575273 -6.028417 -3.115253
H -1.121598 -6.262386 -4.067303
C -0.792451 -5.566112 -2.073219
H 0.275268 -5.437247 -2.194990
C 0.672861 -6.229966 0.839220
C 0.521112 -7.449972 0.195518
H -0.207333 -7.558602 -0.595544
C 1.300174 -8.536144 0.560219
H 1.176242 -9.479102 0.047751
C 2.231265 -8.417971 1.576771
H 2.837314 -9.266463 1.857637
C 2.378911 -7.209205 2.238927
H 3.096277 -7.114207 3.040953
C 1.602059 -6.128159 1.872029
H 1.701309 -5.184229 2.395151
