55
 
O 	 -2.5926141181691436 	 1.7477509794382362 	 3.172130817397978 
H 	 -3.1600503157456314 	 1.0632209730454667 	 3.547082685921647 
O 	 -2.8176088086711606 	 -1.5963696162382826 	 -3.0278842125285053 
H 	 -2.3432761713642813 	 -2.0081540952205708 	 -3.7607753967521504 
N 	 0.004526760271165053 	 -0.49290452424119835 	 1.945734898163765 
N 	 0.023719506302451482 	 1.9150284867077396 	 0.7115740913839088 
N 	 -1.9225387245005514 	 0.04039243060640238 	 0.035124397507486305 
N 	 -0.021340665697206607 	 0.4713158480623954 	 -1.947356993561621 
N 	 -0.022764936891559256 	 -1.8667320415164013 	 -0.7146975577857819 
C 	 0.8898850133978435 	 -1.3291376934488524 	 2.48869846449897 
H 	 1.6158090101672908 	 -1.754283221737304 	 1.8200651921407158 
C 	 0.9488431187470339 	 -1.6205963096548035 	 3.8382092246655297 
H 	 1.6943627928106586 	 -2.305923849366384 	 4.205988161917304 
C 	 0.05448964724516614 	 -0.999525526594008 	 4.692016476686366 
H 	 0.06673186711630841 	 -1.185852940538354 	 5.753947487888221 
C 	 -0.8448744446258851 	 -0.10035447412192322 	 4.14496225231302 
H 	 -1.5172292130732106 	 0.4494586851940079 	 4.78377071510647 
C 	 -0.8434690642257021 	 0.12301384650542352 	 2.7751697128843924 
C 	 -1.7718731158988592 	 1.1832226752665482 	 2.1888207091600957 
C 	 -0.8614467724869579 	 2.2729776887116278 	 1.6446135347039572 
C 	 -0.9387046917200448 	 3.5546035502670477 	 2.166471454591755 
H 	 -1.6855373755710106 	 3.774028462849493 	 2.9103533533689645 
C 	 -0.04272807910304027 	 4.514250154247468 	 1.7284974516502176 
H 	 -0.08282736132916513 	 5.520163570261542 	 2.114952753190201 
C 	 0.9192222480623631 	 4.133025944018589 	 0.8082923367211771 
H 	 1.67083887259664 	 4.8234461788056615 	 0.4624103275328708 
C 	 0.9124672015436512 	 2.834085255226787 	 0.33573540408604663 
H 	 1.682452578017939 	 2.504253858010895 	 -0.33885460891254693 
C 	 -2.588873587688865 	 0.6240319248979145 	 1.0382685574457007 
C 	 -3.967197609018693 	 0.7670420390768079 	 1.0478453935222798 
H 	 -4.45116099766496 	 1.2970730575358331 	 1.851933731047502 
C 	 -4.712925774207749 	 0.253225234280788 	 0 
H 	 -5.78587852963676 	 0.3503525356259953 	 -0.01533387894350735 
C 	 -4.0368191556093596 	 -0.38331456210445736 	 -1.0238274648595311 
H 	 -4.551254850006453 	 -0.8112781473949544 	 -1.8666479844342037 
C 	 -2.6566000327242203 	 -0.4554490079583342 	 -0.9670447822374697 
C 	 -1.8952465822344955 	 -1.10298745683386 	 -2.0989883903070026 
C 	 -0.9903339633823184 	 -0.03698556721319299 	 -2.7145220541288513 
C 	 -1.1747427308190723 	 0.34649493180125096 	 -4.03492617919569 
H 	 -2.011789164877354 	 -0.035216220912726914 	 -4.597682162561291 
C 	 -0.2858217099874021 	 1.2357976385171725 	 -4.615356312171738 
H 	 -0.41786207718973634 	 1.5549076075731816 	 -5.636762258121793 
C 	 0.788457608525067 	 1.667896399470508 	 -3.8560623334319692 
H 	 1.5471162089477333 	 2.3106899300986012 	 -4.270774647946151 
C 	 0.8728769705637052 	 1.2652432900811212 	 -2.5370113933220475 
H 	 1.7207872802660882 	 1.547187789397632 	 -1.9366905899276952 
C 	 -1.0157286375498418 	 -2.216285620858365 	 -1.5375536307354487 
C 	 -1.2311299932367354 	 -3.5299114004575443 	 -1.9291402390190184 
H 	 -2.0896270267633623 	 -3.78039195563602 	 -2.5319558115791176 
C 	 -0.3447134509198644 	 -4.514340321967568 	 -1.5251512802493892 
H 	 -0.5022341503534716 	 -5.543349905029737 	 -1.8058900370096764 
C 	 0.7644254450611913 	 -4.126395778712823 	 -0.7922302707199771 
H 	 1.5281998936685146 	 -4.8328919998694015 	 -0.5124540606759879 
C 	 0.8767156714021083 	 -2.8034901606255436 	 -0.4100103937523068 
H 	 1.7531653171342176 	 -2.4616942974228784 	 0.11469468237255187 
