46
 
N 	 -0.026593555441511763 	 0.763936474345078 	 -1.7912105374272078 
N 	 -0.4167774718691291 	 1.7182009183866507 	 0.47339710144987446 
P 	 -0.2011160175560608 	 -0.4807120878431413 	 2.1602010602962958 
C 	 0.26309862353300106 	 0.1330741290260905 	 -2.924403821906708 
H 	 0.5528353210107454 	 -0.9056059923431562 	 -2.831570348208084 
C 	 0.20198052394850685 	 0.74769917615922 	 -4.156047652396525 
H 	 0.44529664126124535 	 0.19553908962988253 	 -5.048526754587391 
C 	 -0.18373807128195097 	 2.0856478049019462 	 -4.2166592353774695 
H 	 -0.2512045245243817 	 2.5930360950098565 	 -5.166685017352131 
C 	 -0.46944984726929095 	 2.7524112477850693 	 -3.0466978751296714 
H 	 -0.7611800203836658 	 3.789736271418682 	 -3.0599298241360415 
C 	 -0.3755238814669457 	 2.0692254447985516 	 -1.8296012022024477 
C 	 -0.5767366995725715 	 2.625998214499642 	 -0.5189017161363716 
C 	 -0.8383655064904186 	 3.9832396616402184 	 -0.2531174943159257 
H 	 -0.9858430268446339 	 4.656873297022164 	 -1.0814717925973392 
C 	 -0.8792972454928235 	 4.4386829053467665 	 1.0311156651870637 
H 	 -1.0610818039637648 	 5.478138160632762 	 1.2546159589854837 
C 	 -0.6510157474343172 	 3.5262278721608453 	 2.0914884020267355 
C 	 -0.6023690298782353 	 3.907611351191736 	 3.442187206240141 
H 	 -0.756428653927006 	 4.9473544128004425 	 3.6900923854990815 
C 	 -0.34839046051567446 	 2.9850143645203664 	 4.427048778300854 
H 	 -0.2945597732218461 	 3.2970384451380603 	 5.459432922317676 
C 	 -0.16982670271602118 	 1.6378639436960607 	 4.108262015458922 
H 	 0.02793222418442487 	 0.9264718682237736 	 4.895889360276067 
C 	 -0.23738789704363628 	 1.2235778969526154 	 2.794335643277115 
C 	 -0.4489937579872481 	 2.164949579596848 	 1.7666436557199536 
C 	 -1.9057915304853605 	 -1.0612852191153301 	 2.7018098830218737 
H 	 -2.0930090141970514 	 -1.970919900228576 	 2.118197873975196 
C 	 -2.930640947272667 	 -0.0042096537826836755 	 2.287820458120806 
H 	 -3.9340332819321953 	 -0.4224841614906356 	 2.3341393574455247 
H 	 -2.7612031788081928 	 0.340357473821594 	 1.2680743825893321 
H 	 -2.8846486070476347 	 0.8573102858770221 	 2.9525659032976077 
C 	 -2.071734071769733 	 -1.3886897823241322 	 4.1817176597594266 
H 	 -1.7961493547724168 	 -0.5417498284872155 	 4.807146060685721 
H 	 -1.4915443416641019 	 -2.2599246576089387 	 4.475237646225955 
H 	 -3.120413843676255 	 -1.6133865031980805 	 4.371728442817535 
C 	 0.9600412314979814 	 -1.3949596374117426 	 3.2923736799948338 
H 	 0.47757343960535037 	 -1.4210827667254702 	 4.276022188607939 
C 	 2.32056279174543 	 -0.7222469114152427 	 3.4426614118676153 
H 	 2.871729465695278 	 -1.1990843048762418 	 4.251875356330581 
H 	 2.2170806660368574 	 0.33636247876130176 	 3.6743658711918203 
H 	 2.9078991374154413 	 -0.8145750580046558 	 2.534807571757817 
C 	 1.0986908769235284 	 -2.814744666815478 	 2.7462847329708433 
H 	 1.5711118671129758 	 -2.7913574641714614 	 1.7645459983420446 
H 	 0.1256780833017408 	 -3.29629097376728 	 2.647820926129323 
H 	 1.718759273428876 	 -3.419428152410452 	 3.4055229558319575 
