39
 
Br 	 -0.06105358206838585 	 3.824237213353537 	 -4.013269290676604 
O 	 -0.21588274077376385 	 0.8216141283819072 	 -3.8465889475698205 
N 	 0.03217096793199649 	 -1.8731249817219024 	 0.4485425109779758 
N 	 0.6451184400536916 	 -3.773780885650322 	 1.3399907950347691 
N 	 -0.11467451654450456 	 -0.29695947582017007 	 -1.8500654937221563 
N 	 0.2630992548312795 	 3.9881043212095286 	 0.0793546627526692 
N 	 0.04849142182144432 	 1.7409431326500313 	 -0.4848458915961522 
N 	 -0.04854368398737757 	 0.8367435479041837 	 1.9342930165067018 
N 	 -2.0742363272515196 	 0.09147452618286593 	 0.19307270949524327 
C 	 0.6108080459160539 	 -2.44568882253845 	 1.489674211279219 
C 	 0.07636948493147683 	 -4.072231914340505 	 0.13882841953111022 
C 	 -0.3056084997239589 	 -2.8837310854206715 	 -0.41668242740781497 
C 	 -0.8965316173227842 	 -2.62263358151032 	 -1.758229735015383 
C 	 -0.05049727196568665 	 -1.5831120170919821 	 -2.499331529042039 
C 	 -0.12265941881947756 	 0.7938561779136313 	 -2.635200173167408 
C 	 -0.02654604454889581 	 2.025590812155155 	 -1.782591598127783 
C 	 0.04112698255303743 	 3.3535545924123267 	 -2.2042625068111947 
C 	 0.17725098178209406 	 4.315734229368476 	 -1.196427750854628 
C 	 0.21459193873293142 	 2.7141300199226137 	 0.40597708317829917 
C 	 0.3994871631288003 	 2.238925733992 	 1.81349883047669 
C 	 -1.420905274478765 	 0.7099976922030009 	 2.445076874799927 
C 	 -2.4081660534301594 	 0.9835936415784691 	 1.3132730415574074 
H 	 1.0538066910723378 	 -4.43765461839097 	 1.9802222969048286 
H 	 0.5807802144271875 	 0.3812442094261033 	 2.5906018271549196 
H 	 -2.42884321687267 	 -0.8426414069267325 	 0.3954024724758466 
H 	 -2.5463776177149904 	 0.39933072944645687 	 -0.6560423802117128 
H 	 1.0256464890005232 	 -1.9360042775413036 	 2.3362095631563338 
H 	 -0.01339070270385355 	 -5.072875908811653 	 -0.22830248823636928 
H 	 -1.9229823521446918 	 -2.258769523104145 	 -1.6706435618103452 
H 	 -0.9118405033908357 	 -3.5514857888995657 	 -2.326366432078713 
H 	 0.9903624397937123 	 -1.925624812829777 	 -2.546655399340646 
H 	 -0.4173245788360174 	 -1.4568449155831362 	 -3.5235141876863523 
H 	 0.22446769743695602 	 5.370238778346027 	 -1.427967342504154 
H 	 1.4733494512307281 	 2.2911137029421837 	 2.0199651268030814 
H 	 -0.11202402843060977 	 2.902378188079549 	 2.518392301078972 
H 	 -1.6056357365806584 	 1.3973848072906745 	 3.2785567824931885 
H 	 -1.5611264297436038 	 -0.3134145089235809 	 2.8025932870688206 
H 	 -3.4335231539026863 	 0.8298937399680142 	 1.6657763853964371 
H 	 -2.315176895738027 	 2.0204213476803545 	 0.982535132240494 
