71
 
N 	 1.8787469723077335 	 0 	 0 
N 	 2.266386092766946 	 -1.0144632514801577 	 -2.125790558520586 
N 	 0.0112501311476787 	 -0.3617768302578716 	 -1.8018860519734834 
N 	 -2.3737921259056525 	 -0.36941181340487617 	 -2.272995930779193 
N 	 -1.8678924079697086 	 -0.2274412795277555 	 0.05826546222904194 
N 	 -2.1829292144685657 	 -0.21571219288193136 	 2.424808639147038 
N 	 -0.021888555926187547 	 0.5035704813076209 	 1.7700433302379732 
N 	 2.32815808713804 	 1.0131241297626763 	 2.1179869331350525 
N 	 -1.1129915192928874 	 1.5966362911560747 	 -2.6028896005281195 
N 	 -0.1135578740767764 	 1.7698608139400285 	 -0.4342073681930052 
N 	 0.8223952240793546 	 2.7357591223712565 	 1.5463759645120008 
C 	 2.6693130539293533 	 0.3683538780998769 	 1.0736135568603142 
C 	 4.032553315203543 	 -0.10906088259833217 	 0.813282352183472 
C 	 5.1995474642203074 	 -0.02570904803790748 	 1.5436170027879474 
H 	 5.210555970697074 	 0.4595432901684146 	 2.5062907541441213 
C 	 6.344225739937973 	 -0.5877201169773176 	 0.9914470286510184 
H 	 7.2746808805163985 	 -0.5425882552198101 	 1.5383354937729883 
C 	 6.317002542805485 	 -1.2046747765432428 	 -0.252327833618855 
H 	 7.226800177586659 	 -1.6276302715479671 	 -0.6527299376530098 
C 	 5.14416568209664 	 -1.2829363189104876 	 -0.991938540907549 
H 	 5.11298120775785 	 -1.7541210930929836 	 -1.9613259809567876 
C 	 4.004566646155357 	 -0.730839569234289 	 -0.44152739522296036 
C 	 2.6287452737746193 	 -0.6230619478831019 	 -0.9311735159311707 
C 	 1.0217292117421186 	 -0.7426648506273333 	 -2.5456911657865096 
C 	 0.6303210457662949 	 -0.7841854674336618 	 -3.952344878541176 
C 	 1.3010482990094738 	 -1.209814158089029 	 -5.085373293577969 
H 	 2.3043655075167453 	 -1.5985869281842857 	 -5.013010202985294 
C 	 0.6351636067532005 	 -1.1182647717564849 	 -6.297153723620177 
H 	 1.1268478072209644 	 -1.4465559979834908 	 -7.2013914853093075 
C 	 -0.6546878595591399 	 -0.6077795847623102 	 -6.369580586710699 
H 	 -1.1459153383301244 	 -0.5485722090842053 	 -7.329976547338881 
C 	 -1.3226288183271933 	 -0.16840394837211362 	 -5.233301540809195 
H 	 -2.320082551003411 	 0.2365734804281584 	 -5.280985534946513 
C 	 -0.6663783575166897 	 -0.2701299626411191 	 -4.02844967972744 
C 	 -1.0845208486053215 	 0.14608310187017925 	 -2.6364141501844904 
C 	 -2.6644229104659423 	 -0.49907381092253156 	 -1.0403632684985387 
C 	 -3.9582825391440326 	 -0.9869603191827712 	 -0.548355969043264 
C 	 -5.099664027579313 	 -1.4069146342458931 	 -1.1987970716644227 
H 	 -5.145190700403294 	 -1.414876472295258 	 -2.275812469723541 
C 	 -6.172899561207293 	 -1.8131811155836475 	 -0.4151946513497973 
H 	 -7.081277931839936 	 -2.150154588049499 	 -0.8926667481381889 
C 	 -6.103137207279465 	 -1.7918924832595113 	 0.9716529172458159 
H 	 -6.957686328616699 	 -2.112346405225282 	 1.5494155723283098 
C 	 -4.957746867236417 	 -1.3616076487691338 	 1.6283330946561725 
H 	 -4.894717028193224 	 -1.3345551094021817 	 2.704575327932805 
C 	 -3.8885868968056823 	 -0.9631326895085262 	 0.8505781051932038 
C 	 -2.5585884616976995 	 -0.45500053722027145 	 1.1930478286474109 
C 	 -1.0017774671904554 	 0.38841583668658974 	 2.63460332183928 
C 	 -0.6592140311117256 	 1.0556859484556798 	 3.8867504459114013 
C 	 -1.3166343216232796 	 1.1319130538969793 	 5.102078792935733 
H 	 -2.264443322761278 	 0.6370090743388956 	 5.24346035860415 
C 	 -0.7110328689267198 	 1.8598721378547858 	 6.11345439906988 
H 	 -1.19356199762542 	 1.9366125183887386 	 7.07699926727847 
C 	 0.5067334726316748 	 2.4959552875649673 	 5.907914973009406 
H 	 0.9523590068046319 	 3.05625061094778 	 6.716961109689616 
C 	 1.158711792364686 	 2.431060493841274 	 4.68277164510912 
H 	 2.0983776845426636 	 2.92976415613442 	 4.51150205528036 
C 	 0.5636720915698483 	 1.6994502694486489 	 3.6810668742229256 
C 	 0.9744792096695107 	 1.472367524488847 	 2.243770891245187 
C 	 -0.6494913802240441 	 2.241958646981492 	 -1.60322566801922 
C 	 -0.5675804100632543 	 3.7084210493056604 	 -1.5501920983830235 
C 	 -0.9611492789938596 	 4.682688209546921 	 -2.4444921692296147 
H 	 -1.4394996728011265 	 4.411197755234248 	 -3.371687981329896 
C 	 -0.7192502096069526 	 6.006974267519015 	 -2.1023272078147226 
H 	 -1.0173983662631216 	 6.793533265608842 	 -2.780124212463223 
C 	 -0.10169485518280375 	 6.339425671785956 	 -0.9041961003486337 
H 	 0.07231242699142126 	 7.379343921777264 	 -0.6690867575022352 
C 	 0.2951446060605828 	 5.360038257166134 	 -0.0027371039805200448 
H 	 0.7757650184049019 	 5.604844675899719 	 0.9307051184640008 
C 	 0.05583700287497856 	 4.0439797212602775 	 -0.3411375785573554 
C 	 0.3196314922794601 	 2.787296872468326 	 0.37381067871121393 
