48

Fe  0.0  0.0  0.0 
O  0.9129791840866528  -1.0999136078069647  0.5886608322374935 
O  1.5453689365228935  1.186563126557157  -0.5495454734141708 
N  -1.444535060829504  -1.103122576997017  -0.6318687116630829 
N  -1.0138130597800423  1.0164730582468247  0.5927533528397604 
C  0.9008957633580548  -2.404542350374367  0.3714068449081529 
C  1.993266483723818  -3.194664869404366  0.7952569412975166 
C  2.0241372697174076  -4.555873105550011  0.5766292613907804 
C  0.9572717946904059  -5.2079413642250945  -0.02638652134119157 
C  -0.14529654263605646  -4.48631749136442  -0.3706641094045495 
C  -0.20782796119003027  -3.0818550686435797  -0.21671416669999477 
C  -1.4143182222950281  -2.3621911415822896  -0.4692325461212101 
C  -2.6750966146583126  -0.3321641648243887  -0.4835545217192736 
C  -2.3758380172192433  0.5531909311574732  0.7488338001491828 
C  -0.628044314589478  2.1010102560372  1.2081203017760016 
C  0.6398810553595949  2.7083671472554682  1.0942033454912181 
C  1.6932958861127465  2.2153555193824483  0.26530364761981295 
C  2.8989010435496407  2.909863110000876  0.2710439381130656 
C  3.1271679504130794  3.9861762345669467  1.1032988432459956 
C  2.0979547830430314  4.475366109309996  1.898359899115917 
C  0.891355373066583  3.853587996304439  1.887076635769911 
H  2.7511385044379923  -2.7710720480035502  1.2427836576802507 
H  2.7982735021823246  -5.076542153729618  0.8643711002894117 
H  0.9839211980871472  -6.159196737355837  -0.19894240906597416 
H  -0.9171261372407495  -4.941316005699497  -0.7463904178329428 
H  -3.436541730260302  -0.9033034033001601  -0.3435537852955319 
H  -2.8528965725497897  0.20207378691250985  -1.2633715809695527 
H  -2.998424589059679  1.2973220159241996  0.7893361364752511 
H  -2.49029176324558  0.04911080524802117  1.5576744375331173 
H  3.6068280579655823  2.60925352386344  -0.3090556731455625 
H  4.005892701371283  4.412109084465011  1.11410159433807 
H  2.24791201337288  5.241066955790386  2.461322644571612 
H  0.1692605753679894  4.211034515906654  2.432531811527638 
H  -2.2459688697595905  -2.8541712265064523  -0.5211945188492351 
H  -1.2764669622370926  2.5311680825309613  1.7858824451566662 
O  -0.7790361280835649  -0.424660368180784  3.0351715970629236 
C  0.0  0.0  1.91 
H  0.854381314015068  -0.4484367903911474  1.9133667915843426 
H  0.2097305533218835  0.9718194131326618  1.9708807298066036 
C  -0.17552902606650678  -0.0836232000541266  4.267752271003222 
H  0.7518621873216629  -0.3977537673628704  4.2747361103989014 
H  -0.6698124959470628  -0.5068349388844734  5.000760719466833 
H  -0.19159640456147664  0.8894896517407386  4.381531781548693 
F  0.0  0.0  -1.7999999999999998 
F  -1.1630522838928354  0.5613747104523586  -3.6878138863235934 
F  0.1002608271284634  -1.3057968698219375  -3.6266913590715713 
F  1.0598384744465028  0.7894175666946711  -3.631043804357715 
B  0.0029529823178690018  -0.0449954073250921  -3.233511685761605 
