71

Pd  0.0  0.0  0.0 
N  0.2159734719346711  -2.0435368955330486  -8.659739592076221e-15 
N  1.8617042936009416  -0.024195836519572522  -2.55351295663786e-15 
N  0.3223222344643871  2.067732732052621  1.1213252548714081e-14 
C  -0.6941949353380086  -3.0333698315408713  -0.05201816218254807 
C  -0.3342552342638152  -4.371798472871788  -0.16224394707743672 
C  1.0102197284451622  -4.69609790815822  -0.22874808921608125 
C  1.9463389854059623  -3.6868564593363304  -0.2074322564372021 
C  1.5404554632006042  -2.3668212921209073  -0.09570466934824459 
C  2.4745775407599355  -1.2200781129904992  -0.06319797259015003 
C  3.860687831161097  -1.2828788600836756  -0.11477644686527133 
C  4.570177826002109  -0.08202830192636568  -0.06599833503445296 
C  3.929687093440256  1.127343368435115  0.01794405252667952 
C  2.5248742567627676  1.1441210315452375  0.04168207954478731 
C  1.655129482357838  2.32537820034995  0.07784184368665004 
C  2.113598893297837  3.6357048228955913  0.1795299525316133 
C  1.20599346151227  4.676915342345144  0.15513068244158823 
C  -0.13376393273165932  4.4090862946845695  -0.013027771993347037 
C  -0.5434000732420354  3.0901329628512433  -0.07730623521030378 
H  -1.616577276367204  -2.808016810583257  -0.014499461475058761 
H  -0.9971132250316304  -5.049873183477915  -0.19086196433358726 
H  1.282380119683913  -5.6036933418853625  -0.28912540381692686 
H  2.871454885652091  -3.896105267883324  -0.26846099748155755 
H  4.31146410250221  -2.1169236173594346  -0.1809877454224279 
H  5.519028724844056  -0.1030520310287093  -0.09256870540183526 
H  4.425821806688039  1.9365555336687956  0.059159558690740854 
H  3.0439685752599726  3.8120093690057963  0.2664530904555974 
H  1.5053436150285708  5.573314188794596  0.252073468010498 
H  -0.7631888526180013  5.1182438409988995  -0.08161534179657026 
H  -1.4691044213867863  2.901617842629959  -0.17833350516182478 
O  -3.972445107304682  -0.2279649493397118  -0.6455918829468057 
O  -1.949310514926491  1.5577816814271728e-15  -0.0506894850735089 
O  -0.05068948507350868  -3.0531133177191805e-16  -1.949310514926491 
O  1.1782860555865071  1.0568658261636223  -4.276499292388858 
O  0.8524255240148133  -0.6597589635060691  -5.469549876167811 
O  -4.029904163851337  0.14637388258452408  -6.726412284482668 
O  -5.425517706883431  0.20900804452162092  -5.094897843766928 
N  -2.8021920662910134  -0.08151116768138629  -0.9365702495589396 
N  0.5060220084350932  0.1354580127300397  -4.643672170269492 
N  -4.292055596934788  0.13751212731876478  -5.538361967608015 
C  -2.4306338703192996  -0.019734938014541285  -2.3410888519471107 
C  -3.4785271112543383  0.002263641299158143  -3.2463043832493965 
H  -4.360148078144256  -0.009281501172097688  -2.950087232453887 
C  -3.1944320845945016  0.04254432024104099  -4.585427761706781 
C  -1.8956374937573217  0.037083694159984526  -5.057966979523562 
H  -1.7187990003682958  0.022220831159239215  -5.969694270197342 
C  -0.8748388828191376  0.05200773095649613  -4.14558196812081 
C  -1.0716316517403413  0.01286910830168729  -2.712000601641396 
C  0.0  0.0  1.95 
C  0.18664339670729035  1.0920747153059476  3.008416698968322 
H  -0.6288611623384613  1.667991121766241  2.989530276716999 
C  1.3324130672296741  1.9672291641626594  2.92839812139205 
H  1.261015547482868  2.6637112647105883  3.614950142574968 
H  1.3612401622435453  2.3847666134741483  2.043405727630656 
H  2.152275151438671  1.4494042049386415  3.073126054014341 
C  0.7793903483922565  -0.8054811491574452  4.851844403682767 
C  0.19795362298818864  -1.0190856302557885  6.200101096603706 
C  0.44065319059811525  -2.003624099833554  7.122495422151854 
H  1.0477062659866538  -2.7113274968862298  6.941962667612903 
C  -0.23601591876345507  -1.9212902865345802  8.330229593906326 
H  -0.09011579922179314  -2.5875449143176397  8.990705472402572 
C  -1.1158720388508911  -0.8890679124991724  8.587594778974921 
H  -1.5517980072090332  -0.8491313558977851  9.43117290906 
C  -1.3760352241163065  0.09561095514590387  7.636220764905922 
H  -1.9947372129167136  0.7955519012886865  7.805552306466165 
C  -0.6942748167881978  0.00721211271464026  6.435733254909826 
C  -0.749259163985354  0.8768872444252956  5.240146433785004 
N  0.19833507946020906  0.3592441710047656  4.362054537495911 
O  -0.6716556755679246  -0.944946696252189  2.1771335393980107 
O  1.5988134524410418  -1.469949377159683  4.259256190395819 
O  -1.4478142652103863  1.8417654498565372  5.026039102672145 
