68

Pd  0.0  0.0  0.0 
O  0.05022038169542031  -1.8745881039659333  -1.1879386363489173e-14 
O  0.30359616618577323  1.888956096894991  1.676436767183986e-14 
C  2.8082050650779227  -1.0502576851745467  -0.07425750388165246 
N  2.0461834521188065  -0.014367992929057494  -4.884981308350688e-15 
C  3.363308872354846  -3.491053789161057  -0.0645847632704337 
C  1.024116782184244  -2.7680950604451326  -0.06390516284457613 
C  0.6187866499392347  -4.123079263526446  -0.18858484560941943 
C  2.3786139213162727  -2.4262356172936035  -0.04754908717603034 
C  1.5371078844307635  -5.113697362910157  -0.24610433322324152 
C  2.9364798004140154  -4.836344424487063  -0.1806551292140268 
C  4.75543153734487  -3.2612836944047543  0.04194973431956072 
C  5.657548780653612  -4.29586379136095  0.015936808549026345 
C  3.8860292682831803  -5.87885603905405  -0.22755621195541817 
C  2.652358425651502  1.3420321575926173  -0.10807100965297244 
C  1.5908429885967634  2.2738613216582637  0.47303253180173527 
C  5.225407912733722  -5.615961317369532  -0.14773420934805445 
O  3.4046505532765527  2.9178301170374645  -1.7742486519597072 
C  2.8540993611863836  1.6228500026316932  -1.5985668140204727 
C  3.9603915156753127  1.5011751190433802  0.6650079211318717 
H  3.7217279392319336  -0.8972206131030683  -0.15116395984722145 
H  -0.28644873225330447  -4.329396196036741  -0.23234368684486204 
H  1.250634333700283  -5.994968564292411  -0.32880955885105884 
H  5.066700808790731  -2.3894916523691876  0.13260780675119285 
H  6.565270366098258  -4.117633916702992  0.10756292435268365 
H  3.598506877634321  -6.758615566776189  -0.31359532084017666 
H  1.610144479325057  2.2289971347791733  1.44254332967422 
H  1.7765261285442466  3.187709419406771  0.20911753453807488 
H  5.843084625793654  -6.308385198331753  -0.20210412029790367 
H  2.946303983696815  3.3390526926280746  -2.308765493572111 
H  3.450064877734529  0.9592494131359552  -1.9787300825070644 
H  2.0016124871987984  1.5650519383799446  -2.0600255483051613 
H  4.202332994593056  2.4289252560498054  0.6942223707014815 
H  4.654288468651039  1.0014393687935381  0.22686294675326446 
H  3.8437361414473203  1.1721685797401509  1.5594610449787498 
C  -2.011110854284162  1.2965828761665734  2.666870957721401 
H  -1.5702754325581127  1.850924348741405  2.0646824633650214 
C  -1.9507541086280962  1.5665541302345776  4.030826266824584 
H  -1.4650646527888151  2.297280008557583  4.33695771446698 
C  -2.6077087166739754  0.7513063200689318  4.927984302505824 
H  -2.5748738638567437  0.9354418076912101  5.838263839043172 
C  -3.3126331627076553  -0.3335461138810242  4.468881839065468 
H  -3.737652571420023  -0.8981948983398723  5.073340367359164 
C  -3.392223675959984  -0.5883433063702099  3.1177304371493646 
H  -3.9018586522291523  -1.3052189172217143  2.8154058441546734 
C  -2.7245071704589257  0.2061688386806873  2.2066169811801597 
C  -2.9118752397754015  -0.04722019830430005  0.7468396822278673 
C  -4.301427464335764  -0.31804661861392397  0.27056648827124374 
H  -4.541370804005447  0.32600101696670897  -0.3997244462125711 
H  -4.910537190436352  -0.2531574798734683  1.0104893229257723 
H  -4.344982690527161  -1.2007696182700478  -0.10435796831904987 
C  -1.3259603867761498  -0.0566796999686779  -2.2456010367947745 
C  -1.6569518422954441  -0.08701761176923309  -3.6942653483179297 
C  -0.720850368855341  -0.4821310459324218  -4.613608644136799 
H  0.12929344822646383  -0.7247739407972539  -4.323759086867497 
C  -1.0175516932709288  -0.5241188953181096  -5.966059724432896 
H  -0.37368356374315226  -0.7867692596817625  -6.582083967363338 
C  -2.2750755705981534  -0.17380218120333424  -6.383279196370312 
C  -3.217362123035828  0.2590105028156015  -5.485741206284389 
H  -4.058256777337096  0.5234958835796383  -5.783360499559636 
C  -2.9121259850461327  0.2978055543280796  -4.145160382893528 
H  -3.5528222370736606  0.5855411300732553  -3.5347771826918075 
N  -1.9169662030304064  -1.3322676295501878e-15  -0.08303379696959357 
N  -2.3291082841727  -0.09391752006866673  -1.4228915858322244 
O  -0.08303379696959379  6.938893903907228e-17  -1.9169662030304064 
Br  -2.6844782473940167  -0.2285722836814954  -8.228976036078008 
S  9.71445146547012e-17  -1.1102230246251565e-16  3.4486044000976994 
N  8.622856624762138e-17  -7.391844624607815e-17  1.9100000000000001 
