98

Pd  0.0  0.0  0.0 
P  0.15604242083376407  2.186598155840083  6.300515664747763e-15 
N  1.8764761599723776  2.25401777538832  0.1018994314680012 
N  1.9035308731336058  -0.027041035419122672  2.3037127760972e-15 
N  0.34042670603263003  -2.1595571204209603  -8.631984016460592e-15 
C  -0.44723742301204283  -3.228573904701088  0.026469505920434427 
H  -1.3659218654983858  -3.109895446854417  -0.04570063178686909 
C  0.0556820412287935  -4.522461162891998  0.15731500862847272 
H  -0.5312515246357383  -5.243849235040766  0.17139260157002825 
C  1.3881520703115686  -4.744359669695541  0.2642821263540054 
H  1.715737053497854  -5.610426141731833  0.3558616808705706 
C  2.266784988897716  -3.6514692525975176  0.235334922825891 
C  3.6841157041641397  -3.7468126774950523  0.37622202262988913 
H  4.074264267651545  -4.586308209541216  0.4690236933219658 
C  4.474377547393979  -2.6509524510787412  0.3774521826874604 
H  5.394141465998012  -2.7482668888823394  0.4681901252976193 
C  3.911313513690563  -1.3406061061769208  0.24084306750078513 
C  4.650669580689628  -0.13401376729655357  0.29222500933716733 
H  5.5778711910829095  -0.1605375536099516  0.36423905271556634 
C  4.007663576635738  1.0674312123812324  0.2371773067720593 
H  4.492269278487927  1.8597364240122587  0.2829487537085609 
C  2.6031189478969856  1.1011387293216133  0.11034833065526409 
C  2.5347554011278204  -1.2279501343448165  0.09335213642954535 
C  1.6915981596884935  -2.3746972794584797  0.09291466404616314 
C  -0.2255752949833263  3.289525678110677  -1.4861438186099538 
C  0.6821683511819709  2.814919163722053  -2.6141309237429917 
H  0.4227231479425927  3.242907151590878  -3.434185805294264 
H  0.6019548027917562  1.8629406850924066  -2.7113558839159677 
H  1.5924491876945934  3.04069810372688  -2.4096469905644193 
C  0.015603197305168681  4.779545995442061  -1.3222644764184275 
H  -0.04691114523949036  5.20978222005387  -2.1784595231268207 
H  0.8919875729474731  4.923944629814406  -0.9568341677117589 
H  -0.6443658221704287  5.147931730032743  -0.7292934367524895 
C  -1.6822249202088317  3.01770252756997  -1.8759247495962177 
H  -2.263908077012209  3.3333188228305146  -1.1797885996533586 
H  -1.8105047496421751  2.0738067613366273  -1.9965898972044853 
H  -1.8851551429016407  3.4755663127901535  -2.6951348196647515 
C  -0.34756962887775966  3.044260274484666  1.6110286942284615 
C  0.24207519264854782  4.4271020983296525  1.8187108664827882 
H  -0.2199759058996853  5.058087593359658  1.262023434082783 
H  1.1733127659769766  4.416291703232145  1.5856361845046396 
H  0.14478667732965578  4.680396630316995  2.7391913034570674 
C  -1.866130040717363  3.1387195328029365  1.6571413184380597 
H  -2.142942085028845  3.42790285212429  2.5296851568498515 
H  -2.246352404622881  2.2766969241656305  1.46989512706362 
H  -2.1682934784754284  3.7705009754756347  1.00083685740139 
C  0.1519432092588634  2.1946170846607345  2.7765779915653495 
H  1.0998372976000064  2.0713469385149472  2.6988895860140154 
H  -0.2857955165558901  1.3393573675571637  2.7583035771562616 
H  -0.048863186706146866  2.6380450948708485  3.603903617362498 
H  2.2340205873195353  2.902281441680306  0.2172857887147112 
S  -0.24898442829027512  0.19167360268862563  -4.324329970508345 
O  -5.412380763845242  0.21286561389537706  0.08169761912831208 
N  0.44934815395784805  3.349292649251499e-17  -1.8593199553962392 
C  1.6450132116180582  0.04238793448464068  -2.5857730116224715 
C  2.934221094163591  -0.07615516800791865  -2.075463244486883 
H  3.081205307225311  -0.18875075333720703  -1.1629260094794711 
C  3.992439518379835  -0.02251683471847161  -2.9695900061103675 
H  4.864788034048971  -0.08525019402838731  -2.6509897348619638 
C  3.7695127846271186  0.12189412938788567  -4.339458581859254 
H  4.494599339015722  0.16273643617375086  -4.919483180149076 
C  2.504430172889821  0.2032390143577615  -4.842574329147408 
H  2.3651670470172244  0.2877895672443491  -5.759416325228953 
C  1.434227739047528  0.1602032799084824  -3.9737706481247566 
C  -0.5901817906961884  0.08221432850701892  -2.6441915871652193 
C  -1.888630649293999  0.09116729366970566  -2.0123175047557402 
C  -1.809348153957848  1.1671807354271598e-16  -0.620680044603761 
C  -3.01265075922434  0.047502213190005756  0.10499892016023327 
H  -2.992543821402156  0.0038800044196979594  1.0336947551640452 
C  -4.207965737482764  0.15472801827296576  -0.5438669053195178 
C  -4.275653913816577  0.20527394425416173  -1.9383759946234687 
H  -5.099832668974521  0.2685120957258706  -2.3634662623840805 
C  -3.138089575827672  0.1611349181790882  -2.665906766009198 
H  -3.1779803120488266  0.17904698086123083  -3.595350738056039 
C  -5.428996360003287  0.23714373057645718  1.4780001920024308 
H  -6.336947933637437  0.2679630936650164  1.7877703919799734 
H  -4.957486472875367  1.013378382500193  1.7897440796626531 
H  -5.003192054629287  -0.5541725216841509  1.8160798459794416 
O  1.8061300699147262  1.5198664805856528  2.3858183930744636 
O  1.6901798972607693  -0.39894920249953914  3.51733707246417 
O  -1.5286046015266825  -1.19051769399251  4.853214856410426 
O  -0.7354649997043602  0.8686555893931457  4.515985111263491 
C  -1.812423045075631e-16  -1.184206495779548e-16  1.95 
C  -1.054536664737941  -0.4704344578423867  2.6198099906674432 
C  -2.2338815795767384  -1.1592599820282443  1.998835668272427 
H  -2.113031850509458  -1.2074104702157307  1.0488824465442879 
H  -3.0329532521085367  -0.6652243985522881  2.1954239802769955 
H  -2.311229916658958  -2.0470221165384404  2.357699775255161 
C  1.2329039525628556  0.4962668484299011  2.6244604502150892 
C  2.905383208731894  -0.04301190363395757  4.203453200438062 
H  3.1432235426801074  -0.7412437646314014  4.817405815739479 
H  2.771625700368696  0.7759240007777664  4.686727794661493 
H  3.6112695800810166  0.07439983112445714  3.563169298341041 
C  -1.1214264682288086  -0.3431404649336086  4.09906899556087 
C  -0.7545127138396126  1.0947522866143249  5.9356066270527865 
H  -0.45817523442771263  1.9893627686582762  6.120694048864456 
H  -0.16913214683914052  0.46785621346697703  6.367541848180493 
H  -1.6477665234421242  0.9791304358175956  6.2669114855274834 
