34

Ru  0.0  0.0  0.0 
N  1.46206  1.33535  0.0 
C  1.44608  1.64295  1.45234 
C  1.25824  2.62183  -0.7127 
C  3.17616  0.76753  -1.80755 
C  2.77758  0.69927  -0.32245 
C  2.72934  -0.75705  0.05224 
C  3.82948  -1.4853  0.57841 
C  5.11796  -0.92182  0.71873 
C  6.14094  -1.63969  1.33396 
C  5.91275  -2.92966  1.82142 
C  4.65481  -3.50853  1.67904 
C  3.61446  -2.80524  1.05433 
C  2.3457  -3.38908  0.95319 
C  1.27406  -2.66333  0.43845 
C  1.46206  -1.33535  0.0 
H  2.22727  2.37002  1.7534 
H  0.45107  2.02934  1.75799 
H  1.58119  0.70415  2.03771 
H  2.09808  3.31895  -0.47976 
H  1.19162  2.4869  -1.80839 
H  0.35152  3.15981  -0.3814 
H  4.14824  0.2503  -1.95881 
H  2.40625  0.28718  -2.44584 
H  3.33359  1.81803  -2.13146 
H  3.5817  1.23807  0.22208 
H  5.35107  0.07432  0.37887 
H  7.12359  -1.19031  1.44693 
H  6.71373  -3.46483  2.31865 
H  4.49439  -4.50187  2.08346 
H  2.16814  -4.38079  1.3508 
H  0.31553  -3.12456  0.51945 
Cl  -1.58392  1.58392  0.0 
Cl  -1.58392  -1.58392  0.0 
