56

Ni  0.0  0.0  0.0 
P  1.2090867845196216  1.6180881148750825  3.3645848745467705e-15 
N  1.2090867845196231  -1.6180881148750825  9.992007221626409e-16 
N  2.569130719697543  -1.4956651527514837  0.16136100126939976 
C  1.0048151466080635  -2.9338796749437153  -0.22112918938277398 
C  2.2122679490674813  -3.640332379522322  -0.15984888237884118 
H  2.332997671625685  -4.576400487356444  -0.2656094212715001 
C  3.189754873473946  -2.6999662919081953  0.0858665910446282 
C  -0.3217566583675713  -3.531761317548007  -0.5373046591468198 
H  -0.9649724460281086  -3.285322497971867  0.15989788582139872 
H  -0.23894267289740156  -4.508333350599489  -0.5755628356877949 
H  -0.633817437822122  -3.196134833422991  -1.4030627218179772 
C  4.66349429622182  -2.8644050962934204  0.25457830803889764 
H  5.13101310138039  -2.301639174197578  -0.39726052461126704 
H  4.905421444702019  -3.8030340226403956  0.10907451615371788 
H  4.920222947957146  -2.597270846294082  1.1624468568142543 
C  3.2253415358804296  -0.2270329959925339  0.4685954159461134 
H  4.205983023949514  -0.35225824679146434  0.4181909673326395 
H  2.999923860696834  0.035658550958735935  1.3963232655201168 
C  2.8197467272090844  0.8991740895472318  -0.4770548744143947 
H  2.7619181413228713  0.5481382159268078  -1.40031892119947 
H  3.5124446861244616  1.606806374509905  -0.46211141454090404 
C  1.038768585630675  2.9577491290512765  -1.2494285766796174 
C  0.8168803228761443  4.291109512930348  -0.8821868775853584 
H  0.7403287855539322  4.518758549230471  0.036373887092326036 
C  0.7067042018737785  5.286029953418398  -1.850528924312623 
H  0.5433114116540585  6.184458871865912  -1.589589765500751 
C  0.8363269911438695  4.967698324711167  -3.1977038040763808 
H  0.7564431813313504  5.645021262148729  -3.8585846143219227 
C  1.0835098122642353  3.654088836785293  -3.570812992081847 
H  1.1935255741037707  3.4372831716456793  -4.489927813913269 
C  1.1714789059975461  2.6497449014579764  -2.6076570503367003 
H  1.3222947977662092  1.7511153140870497  -2.8746823702814095 
C  1.5712046742895773  2.582714312083444  1.5101406899914842 
C  2.8647843170647636  2.82226380350896  1.9908016504984176 
H  3.6155936640041975  2.48078269693606  1.5203198140773475 
C  3.0525488523718094  3.561483419550908  3.1591959711538036 
H  3.9311298233176717  3.6957311765197978  3.497354450628495 
C  1.9635505393268153  4.102426333569886  3.8320520909579026 
H  2.099355104225588  4.607969781717115  4.6249300337637615 
C  0.6721522897668089  3.903583920698668  3.3455263815889404 
H  -0.07380307939250397  4.287137488823056  3.7914113304282546 
C  0.4881389233421586  3.136229220676133  2.1973299762076888 
H  -0.3919098512112289  2.9853615251805494  1.875550544200364 
Br  -1.5839191898578664  1.5839191898578664  0.0 
C  -1.29374738  -1.23987949  -0.45980057 
C  -1.6015622  -1.49386547  -1.79197911 
H  -1.13094174  -1.04282176  -2.48087966 
C  -2.60218399  -2.41188997  -2.12154241 
H  -2.82315865  -2.56261387  -3.0327005 
C  -3.26832081  -3.09759503  -1.14306437 
H  -3.95960209  -3.70719172  -1.36832808 
C  -2.93474499  -2.89608732  0.14198827 
H  -3.36683509  -3.40560694  0.81710224 
C  -1.96755092  -1.95161757  0.51124219 
H  -1.77552984  -1.8022912  1.43013249 
