37

Ru  0.0  0.0  0.0 
N  3.40976  -2.20138  -0.5737 
C  3.29088  -3.62766  -0.55225 
C  2.04132  -4.27572  -0.48789 
H  1.10777  -3.73784  -0.44317 
C  1.98409  -5.66897  -0.50927 
H  1.02477  -6.16441  -0.47014 
C  3.16007  -6.41936  -0.59123 
H  3.11359  -7.49728  -0.61408 
C  4.39632  -5.77967  -0.65352 
H  5.31444  -6.34598  -0.71875 
C  4.45863  -4.39249  -0.63688 
H  5.42908  -3.91462  -0.69007 
N  4.55899  -1.62139  -0.89362 
C  4.38959  -0.296  -0.89114 
C  5.49149  0.64965  -1.25068 
H  5.82096  1.2131  -0.35531 
H  5.15674  1.34709  -2.04442 
H  6.3642  0.08116  -1.63251 
C  3.07948  -0.01589  -0.55208 
C  2.44026  1.30976  -0.51582 
O  1.1801  1.46347  0.0 
C  3.21902  2.57969  -0.4908 
C  4.08282  2.94989  0.55984 
H  4.22701  2.30812  1.42198 
C  4.77832  4.16638  0.48488 
H  5.45537  4.45939  1.27859 
C  4.60076  5.00629  -0.62119 
H  5.13793  5.94226  -0.68768 
C  3.72257  4.64104  -1.64439 
H  3.57094  5.28618  -2.49798 
C  3.03433  3.43441  -1.57431 
H  2.3513  3.15171  -2.36518 
C  2.47913  -1.25264  -0.34785 
O  1.1801  -1.46347  0.0 
Cl  -1.58392  1.58392  0.0 
Cl  -1.58392  -1.58392  0.0 
