55

Pd  0.0  0.0  0.0 
P  1.4694698287137447  1.5273370363151675  5.6434421038253495e-15 
N  1.4694698287137438  -1.5273370363151675  -2.220446049250313e-16 
C  2.8424950975731322  0.45948629596066715  0.4873722882951068 
C  4.06774340324607  1.0266015720294805  0.8797102970260295 
H  4.141114779204711  1.9497500235340972  0.962540168899414 
C  5.149708569373593  0.24013505780286315  1.140932140076988 
H  5.960113411957857  0.6223994081839548  1.3917724230136141 
C  5.032495498761761  -1.114451949391977  1.0299743732615367 
H  5.775986877479393  -1.6502881437230386  1.1869673432232053 
C  3.8381637936986293  -1.7044119409167693  0.6920408935926929 
H  3.7675155986088207  -2.6304849041000784  0.6517320931709608 
C  2.7320848428048845  -0.9032105388003817  0.41024945008079317 
C  1.723546291579218  -2.241176607462069  -1.2894811079200013 
H  1.9788603701215153  -1.6076254612562968  -1.9625191502619386 
H  0.9240385915608249  -2.6957165017311846  -1.5662491373763259 
H  2.4285051806049296  -2.8806231747739277  -1.1673052005702615 
C  1.0709289553191539  -2.5559826021886884  1.036804375011335 
H  1.7358045753673104  -3.246935996827794  1.0733627707950812 
H  0.22411122726163102  -2.9391761973705357  0.797413034192306 
H  1.0008744460517982  -2.133610699549326  1.8955090457754677 
C  1.9578198234194752  2.2687572029681085  -1.585970699335677 
C  1.0767512881245902  3.112217918821638  -2.241250995792983 
H  0.25392455329357255  3.3011933860154055  -1.8499634196469679 
C  1.387893860827911  3.6767042335646116  -3.4602767378999717 
H  0.7879899618773236  4.2482855147376135  -3.8827448562669433 
C  2.5924587820996154  3.3824921544257953  -4.040390643034606 
H  2.807345825128568  3.7553289752848253  -4.865054261578562 
C  3.4830906213154336  2.5486329702914055  -3.425080007656172 
H  4.297494049808023  2.363090072252546  -3.8349480945412857 
C  3.185801687760362  1.9755362082880668  -2.19344962829432 
H  3.7924309288595968  1.4064008345416341  -1.7785977629328713 
C  1.5681066255073153  2.847432209849575  1.2464786541010204 
C  1.7889127000419145  4.163871592378305  0.8983015733274587 
H  1.8385824822367518  4.404543046196276  0.00194825902897236 
C  1.936400408123156  5.126077385898226  1.8851820761654012 
H  2.0577526498418717  6.016924260326558  1.6498083738299145 
C  1.902859937312086  4.764710872236266  3.2143159443749063 
H  2.017540657670362  5.409098706485649  3.875478338533485 
C  1.7008856431015091  3.4561873031216925  3.560576270646621 
H  1.6887386771048853  3.211610447379868  4.457647986203707 
C  1.5165828909990413  2.5010704622969295  2.590496044098119 
H  1.3557644041688957  1.6180619036530963  2.8355251233017897 
Br  -1.654629867976521  1.654629867976521  0.0 
C  -1.35204078  -1.31992066  -0.4819701 
C  -1.63807002  -1.59921746  -1.81393823 
H  -1.15796809  -1.15933936  -2.50351594 
C  -2.63068217  -2.5263265  -2.14228996 
H  -2.83682226  -2.69439953  -3.05388981 
C  -3.31015444  -3.19615732  -1.16198741 
H  -3.99601236  -3.81199015  -1.38686634 
C  -2.99747104  -2.9701089  0.1242356 
H  -3.43865917  -3.46858118  0.80170842 
C  -2.03898543  -2.01594063  0.49125628 
H  -1.86191301  -1.84921651  1.41015686 
