75

Pd  0.0  0.0  0.0 
O  0.19191  -2.0375  0.0 
H  -0.71945  -2.36225  0.03714 
N  0.34582  2.05443  0.0 
N  3.85022  0.96708  -0.08279 
N  4.04261  -0.35479  -0.08475 
N  1.86227  -0.01693  0.0 
C  -0.68097  3.0648  -0.03423 
H  -1.7412  2.76269  -0.02607 
C  -0.16999  4.4793  -0.09088 
H  -0.88457  5.29568  -0.11981 
C  1.15155  4.73186  -0.11208 
H  1.49555  5.76126  -0.15649 
C  2.15063  3.63053  -0.0858 
H  3.21148  3.857  -0.11902 
C  1.71963  2.36224  -0.03627 
C  2.5196  1.14409  -0.03466 
C  2.82291  -0.94006  -0.04902 
C  2.56601  -2.40173  -0.04264 
C  3.65113  -3.28573  -0.04627 
H  4.6653  -2.92805  -0.06929 
C  3.4246  -4.66583  -0.01412 
H  4.26608  -5.34811  -0.01602 
C  2.11989  -5.15485  0.01611 
H  1.94415  -6.22502  0.04247 
C  1.03516  -4.27572  0.01932 
H  0.02766  -4.6689  0.05089 
C  1.25101  -2.88388  -0.0057 
O  0.54106  0.0  -1.90961 
O  -1.90106  0.0  -0.57039 
O  -3.79634  0.23553  -1.88102 
C  0.43141  0.12354  -4.27959 
C  -0.29266  -0.32159  -2.98293 
C  -1.73716  0.07592  -2.91176 
H  -2.28426  0.16318  -3.849 
C  -2.4495  0.1161  -1.7907 
C  -4.62321  0.24077  -0.77358 
H  -4.18485  -0.33234  0.07794 
H  -5.59006  -0.24592  -1.02035 
C  -4.84234  1.68117  -0.36488 
H  -3.86623  2.14557  -0.12781 
H  -5.49167  1.73487  0.52933 
H  -5.3023  2.23215  -1.21114 
F  -0.34563  -0.08977  -5.40345 
F  1.58482  -0.62954  -4.39984 
F  0.79523  1.46383  -4.23731 
O  -1.72971  0.47128  6.6207 
N  0.0  0.0  1.91 
N  0.3769  -0.17938  6.95269 
N  0.25807  -0.10946  8.32662 
C  -1.35224  -0.06158  2.43011 
C  -1.52005  0.02863  3.88927 
C  -0.45251  0.12696  4.68473 
C  0.92278  0.19044  4.09555 
C  1.11774  0.12945  2.77795 
C  -0.63985  0.16604  6.14154 
C  -0.12283  -1.09895  9.13834 
C  -0.53031  -2.46142  8.66126 
C  -0.06095  -0.65115  10.4514 
C  0.3738  0.66955  10.39143 
C  0.5536  0.97211  9.05465 
C  1.00888  2.26497  8.45446 
H  -2.20948  -0.16139  1.74584 
H  1.27523  -0.52006  6.58008 
H  -2.52945  -0.01408  4.28604 
H  1.79876  0.32036  4.72064 
H  2.12898  0.20256  2.41125 
H  -1.39376  -2.36255  7.9677 
H  -0.82606  -3.11001  9.51181 
H  0.31303  -2.93259  8.11356 
H  -0.29791  -1.21928  11.3362 
H  0.53755  1.33455  11.23035 
H  1.22289  3.02357  9.23328 
H  0.21632  2.65295  7.77804 
H  1.92506  2.08842  7.84857 
