98

Fe  0.0  0.0  0.0 
O  -4.429225117486571  -1.6900045856554564  0.13077795003204248 
N  -1.850111383148335  0.815362568461012  4.755446078444425e-06 
N  0.8345318688965543  1.837930521782151  -4.755292520658688e-06 
C  -3.2518775182678237  -1.2345854850002433  0.04510786556701396 
C  -3.069975999481274  0.15558004351300078  -0.0038666257181386426 
C  -4.14620338057436  1.1183726665702054  -0.06740377368797383 
C  -3.577800376804536  2.354660434226557  -0.1125316015629548 
C  -2.1490614188462738  2.168179021783989  -0.057208615148920616 
C  -1.2272416462605826  3.2053546798349712  -0.08854567334805731 
C  0.16340625549977053  3.053885034089383  -0.06648734731834294 
C  1.0877807231126118  4.137414086490954  -0.130381683743663 
C  2.35794498183815  3.586364247902095  -0.10508897239444089 
C  2.1885779099649616  2.17636920915169  -0.03754331624731866 
C  -5.611852634269609  0.7912298848980451  -0.051999698176570505 
C  -6.166119459177894  0.6452791022852201  1.354370109470335 
C  -4.271677534446683  3.672776181095096  -0.21425833334790378 
C  -4.411923180011915  4.406004516234671  1.1181287603483832 
C  0.7177692205668481  5.578047645618537  -0.3168493922060543 
C  0.4341673819230066  5.921437449045795  -1.7777139307653358 
C  3.661831648867982  4.326985421708194  -0.14399676662535912 
C  4.222224920347818  4.495061822048564  -1.5544584800117056 
H  -5.762284433801777  -0.023697215230297147  -0.5369663621504206 
H  -6.087945777784704  1.4949721716077256  -0.49731699246744565 
H  -7.10489779038872  0.44453162981189703  1.328703065530912 
H  -5.697942533664834  -0.06742404476809949  1.7944446492899346 
H  -6.026929586319551  1.4640420657063435  1.8360028212160568 
H  -5.150782955101369  3.5251522256149492  -0.5708461165709715 
H  -3.791262003978842  4.226595569375388  -0.8345643733395717 
H  -4.867596675941921  5.241467424767784  0.9920050370750796 
H  -4.906318132246622  3.8613071848888083  1.7355723111524515 
H  -3.5335541127385195  4.570322155030305  1.4683495410537728 
H  1.4373349590805415  6.130856375471104  -0.003964451443424543 
H  -0.05760539780108775  5.775501989641038  0.2128080095334293 
H  0.2018120771892971  6.850138994140039  -1.8558063919998837 
H  1.214040678107096  5.740836701105727  -2.307130091967891 
H  -0.29592211989518347  5.381689847533031  -2.0883768606364197 
H  4.299986352328378  3.8519074701015814  0.3932657430927842 
H  3.5402602665404546  5.1984305809454  0.23995926398363407 
H  3.6233974850364126  5.044452901219056  -2.06566460756325 
H  5.056437866125972  4.968625196133679  -1.5307108102048463 
H  4.358409853778006  3.624800336466404  -1.9365110819122162 
N  1.850111383148335  -0.8154116555748634  4.755350615673276e-06 
N  -0.8345318688965544  -1.8378814346683  -4.755504173459013e-06 
C  -2.1885779099649607  -2.176320122037839  0.03753380545062465 
C  3.2518775182678237  1.2345363978863915  -0.04509835477031934 
C  3.069975999481274  -0.15562913062685224  0.00387613651483275 
C  2.1490085747349577  -2.1681460834314823  0.05711575738223848 
C  -0.16340625549977048  -3.053934121203234  0.06649685811503744 
C  -2.35794498183815  -3.586315160788244  0.1050794615977471 
O  4.429225117486572  1.6900536727693072  -0.13078746082873602 
C  4.146203380574362  -1.1184217536840573  0.06741328448466781 
C  3.577800376804535  -2.354611347112706  0.1125220907662613 
C  1.2272416462605826  -3.2053055927211203  0.08853616255136364 
C  -1.0877807231126109  -4.137463173604804  0.13039119454035697 
C  -3.661831648867981  -4.327034508822045  0.1440062774220531 
C  5.61185263426961  -0.7912789720118967  0.05200920897326418 
C  4.271677534446683  -3.672727093981245  0.2142488225512098 
C  -0.7177692205668482  -5.578096732732388  0.3168589030027488 
C  -4.222224920347817  -4.495012734934712  1.5544489692150125 
H  -4.300039196439693  -3.8519727059767757  -0.3933395792660786 
H  -3.5402602665404546  -5.198381493831549  -0.23996877478032783 
C  6.166119459177895  -0.6453281893990713  -1.3543605986736404 
H  5.762284433801778  0.023746302344147912  0.5369568513537265 
H  6.087945777784705  -1.4950212587215772  0.49732650326413935 
C  4.411923180011916  -4.406053603348523  -1.1181192495516885 
H  5.15078295510137  -3.525201312728801  0.570855627367666 
H  3.791262003978841  -4.22664465648924  0.834573884136266 
C  -0.4341673819230057  -5.921388361931944  1.7777044199686416 
H  -1.4374198560763611  -6.13089541079297  0.004025841538289348 
H  0.057552553689771406  -5.775567225516232  -0.21288184570672333 
H  -3.6233974850364126  -5.0444038141052046  2.0656550967665566 
H  -5.056437866125971  -4.968576109019828  1.5307012994081521 
H  -4.35846269788932  -3.6248655723415992  1.9364372457389216 
H  7.104897790388721  -0.444580716925749  -1.3286935547342182 
H  5.697889689553517  0.06745698312060733  -1.7945375070566165 
H  6.026929586319553  -1.463992978592493  -1.8360123320127513 
H  4.867596675941922  -5.241516511881634  -0.991995526278385 
H  4.906265288135307  -3.8613724207640034  -1.7356461473257456 
H  3.5335541127385204  -4.570273067916452  -1.468359051850467 
H  -0.20181207718929703  -6.850089907026188  1.85579688120319 
H  -1.214040678107096  -5.740885788219579  2.307139602764586 
H  0.2959221198951835  -5.38164076041918  2.0883673498397264 
Cl  -0.5782807097371063  1.9147401721733013  2.152375915180123 
Cl  2.083956037963752  0.19366054724827608  2.269894568419003 
Si  0.0  0.0  2.32 
C  -0.3478403990070904  -0.44177034012742944  4.238889257722364 
H  -1.16784875664427  -0.6501962644899056  4.284980335588069 
H  0.06361252196028688  -1.2256056454541093  4.282360489023581 
H  -0.053598694535569195  0.20917153064986777  4.628532954217823 
O  -0.3239235384706519  -0.8260189213253675  -3.035171597062923 
C  -1.193589896126159e-16  1.0526131877930291e-16  -1.9100000000000001 
H  -0.5517427343840114  0.7916078194212599  -1.9133667915843426 
H  0.9379702527881911  0.32959320627505523  -1.9708807298066036 
C  -0.06102025021410751  -0.1846071711579933  -4.267752271003221 
H  -0.48863926993834883  0.6962301861091547  -4.2747361103989014 
H  -0.41910970483338017  -0.7279268440683717  -5.000760719466832 
H  0.9064652450523085  -0.07887827525373581  -4.381531781548692 
