123

Pd  0.0  0.0  0.0 
O  0.04746  -1.91186  0.0 
N  1.76884  -5.17179  -0.08034 
H  1.56373  -6.17624  0.03783 
C  0.76511  -4.20423  0.30819 
O  5.38337  -2.35019  -1.29692 
H  5.21363  -2.89448  -2.10407 
N  2.0298  0.02815  0.0 
C  1.0876  -2.78069  -0.06649 
N  2.45002  1.3034  -0.34604 
O  0.32274  1.88371  0.0 
C  2.39513  -2.43336  -0.31245 
C  3.47374  -3.4865  -0.24334 
O  2.80253  7.74008  -0.27329 
H  3.69114  8.07678  -0.45836 
C  3.12881  -4.78419  -0.14923 
H  3.89174  -5.55255  -0.10351 
C  -0.68841  -4.64802  0.18951 
H  -1.30208  -4.04733  0.89333 
H  -0.78448  -5.71387  0.48002 
H  -1.06736  -4.49853  -0.84018 
C  4.97222  -3.12374  -0.20457 
H  5.18594  -2.52532  0.70845 
H  5.62956  -4.01655  -0.1056 
C  2.84031  -1.01506  -0.56083 
H  3.85528  -0.83526  -0.14316 
C  1.56762  2.24356  -0.30817 
C  1.88731  3.68492  -0.43532 
C  0.90056  4.63642  -0.10287 
H  -0.10357  4.32934  0.16815 
C  1.21021  5.99671  -0.05952 
H  0.44883  6.71126  0.23195 
C  2.50558  6.42827  -0.35363 
C  3.48474  5.49173  -0.71702 
H  4.49426  5.81642  -0.93055 
C  3.17579  4.12917  -0.7688 
H  3.95384  3.42051  -1.01801 
O  0.5433  0.0  -1.91084 
O  1.84174  -0.08482  -4.25045 
N  -1.9033  0.0  -0.56916 
N  -2.75397  0.61262  0.40409 
H  -2.30353  0.46708  1.32151 
C  -0.19047  0.02231  -3.04108 
C  -1.5747  0.15371  -3.04285 
C  -2.28978  0.10439  -4.2466 
H  -3.36434  0.19192  -4.19734 
C  -1.65061  -0.04958  -5.47961 
C  -0.24654  -0.11441  -5.47095 
H  0.27848  -0.19381  -6.40786 
C  0.48192  -0.07387  -4.26392 
C  -2.3689  0.48042  -1.85266 
H  -3.37946  0.03277  -2.01551 
C  -4.0915  -0.05145  0.43974 
H  -4.59575  0.15416  1.38771 
H  -4.01482  -1.13806  0.26113 
H  -4.72812  0.40616  -0.35589 
C  -2.43592  -0.14011  -6.79784 
C  -3.9554  0.11722  -6.62084 
H  -4.42345  -0.63919  -5.95447 
H  -4.48337  0.06372  -7.59603 
H  -4.12964  1.13239  -6.198 
C  -2.25149  -1.56346  -7.34991 
H  -1.1798  -1.78475  -7.53779 
H  -2.81196  -1.6955  -8.29851 
H  -2.63171  -2.30468  -6.61113 
C  -1.91332  0.89597  -7.81575 
H  -2.47077  0.80748  -8.7729 
H  -0.84251  0.74059  -8.05536 
H  -2.04019  1.928  -7.42406 
C  2.6358  -0.01852  -5.37415 
H  2.40151  0.90497  -5.95114 
H  2.46336  -0.91381  -6.00524 
H  3.70006  0.01735  -5.07085 
N  0.18266  -0.50777  4.72091 
O  0.0  0.0  1.83 
P  0.66421  0.52926  3.37648 
O  -1.94323  -0.99855  3.42218 
H  -2.84222  -0.67887  3.1824 
P  -1.52276  -0.38114  5.0036 
C  1.62667  2.03905  3.46526 
C  1.35932  3.03273  4.39975 
H  0.62865  2.86385  5.17894 
C  2.05185  4.24518  4.30004 
H  1.86584  5.02807  5.01764 
C  2.95924  4.44938  3.24911 
H  3.46668  5.39294  3.1223 
C  3.23884  3.41595  2.36254 
H  3.92956  3.53561  1.55271 
C  2.57297  2.21322  2.50205 
H  2.7642  1.40204  1.85684 
C  2.09411  -0.62785  3.63778 
C  2.41234  -1.54456  2.67813 
H  1.83375  -1.50685  1.81742 
C  3.41337  -2.4939  2.87304 
H  3.64986  -3.21071  2.13312 
C  4.09866  -2.55187  4.06875 
H  4.86446  -3.30327  4.1997 
C  3.76637  -1.67015  5.09335 
H  4.25305  -1.76034  6.05058 
C  2.78094  -0.70496  4.88308 
H  2.49841  -0.05941  5.70417 
C  -1.29106  -1.6742  6.28189 
C  -1.98874  -2.88688  6.21305 
H  -2.73188  -3.05102  5.44262 
C  -1.69586  -3.90551  7.12654 
H  -2.23046  -4.8449  7.07398 
C  -0.69817  -3.72064  8.09107 
H  -0.45973  -4.509  8.78969 
C  0.01294  -2.51779  8.14165 
H  0.80606  -2.37162  8.8618 
C  -0.28701  -1.50001  7.24632 
H  0.29307  -0.58496  7.27216 
C  -2.99583  0.51268  5.48948 
C  -3.86151  0.09762  6.50782 
H  -3.74765  -0.86927  6.97665 
C  -4.84107  0.98721  6.95995 
H  -5.48968  0.68441  7.77466 
C  -4.95022  2.25953  6.40494 
H  -5.68572  2.96236  6.78652 
C  -4.09717  2.66455  5.37387 
H  -4.1478  3.65785  4.96168 
C  -3.13339  1.77741  4.91226 
H  -2.43481  2.10967  4.15167 
