34

Co  0.0  0.0  0.0 
N  1.1560249197141044  -1.4057049423687746  -3.4154288051888534e-17 
N  1.1560249197141044  1.405704942368775  -1.7214920582175351e-16 
C  2.375420873921105  -0.6357469359779429  0.2546594299418479 
C  2.2843480913941345  3.6730560478071306  0.15033577391095887 
H  2.1777843130918164  4.5969252189658825  0.13065645135209045 
C  1.1528879788947162  -2.7673683770683253  -0.06565797898593662 
H  0.3596994397262564  -3.223164594103971  -0.232001388437039 
C  3.5632507603576626  1.654228789351417  0.49063069575699775 
C  1.173290688765996  2.8038467079430767  -0.08713671198652417 
H  0.3725691658880258  3.2136196998693496  -0.325214761978096 
C  3.5975247183635473  -1.3293569394805234  0.48950175244814625 
C  3.5747145113952157  -2.7606054571173004  0.4441190991476809 
H  4.3545001317722045  -3.233258138326769  0.625203441924181 
C  3.5294651491054205  3.1038760756205477  0.41166147463347785 
H  4.293813794258105  3.621861111493731  0.5286404097659861 
C  2.362667656067661  -3.487818074209902  0.12295431273432951 
H  2.377826490889737  -4.4144039463525475  0.04111488902858547 
C  4.8434619934736265  -0.45020631707644265  0.7595696506105211 
H  5.654174483918059  -0.8724972169004762  0.9257852448344973 
C  4.807988747363549  0.9854501383951119  0.7683383833164545 
H  5.576503232820379  1.4751658278341588  0.9521394691682262 
C  2.36377634405961  0.8238318797176083  0.2578493667868721 
C  -2.1375927299915527  2.129916210152851  0.013792912473659186 
C  -3.4281495074309314  2.2465005837822596  -0.609520353894645 
C  -3.5885220102524595  3.579950055857398  0.006181080049838972 
C  -2.2583880843110062  3.437786987742359  0.6237471988773649 
O  -1.2303657992645929  1.2303657992645929  0.0 
O  -4.107783001526159  1.5332255683827745  -1.3758295513539838 
O  -4.4604383800835885  4.450365382562193  -0.012231770296908806 
O  -1.5098999704237543  4.113028895539617  1.3538604841446737 
N  -1.2869343417595167  -1.2869343417595167  1.8389094209567442e-16 
N  -2.049033047543985  -2.0824017578976104  0.0030483609076892293 
N  -2.8845582944669332  -2.851189584113306  -0.0030483609076902285 
