70

Ni  0.0  0.0  0.0 
C  2.68146932615641  0.8907339210728391  0.4652424793572035 
C  2.835071955853536  -0.47777892376240405  0.3688385081159941 
C  4.058734849868932  -1.1246152818221757  0.6766708775995436 
H  4.1244134047292125  -2.070799019202502  0.6094741325261126 
C  5.134566923424868  -0.40231931337052007  1.0679958876191913 
H  5.964836135149731  -0.8358224804079984  1.229860554023849 
C  5.025109042846239  0.9944649587881746  1.2343917692669641 
C  6.154433087707535  1.713006385355819  1.70381404185777 
H  6.979460697908602  1.2574266043625186  1.8241764344727747 
C  6.080262379063232  3.045543237113878  1.9857480318020986 
H  6.845723060565906  3.5178849407563737  2.2910906918964598 
C  4.871688654988191  3.698157336406811  1.820185352192201 
H  4.7740943515059495  4.595657981155921  2.1156165194761485 
C  3.8000432911631643  3.047205932015153  1.2243269350217463 
H  3.045151073988344  3.5592794570194926  0.9611152038270185 
C  3.787842322773804  1.6748530081382247  0.9960213312867301 
C  1.5877090942024172  2.1152039879145272  -1.3573580858804901 
C  1.7527253491249768  0.9324723679200619  -2.433417443293742 
H  1.820917098712326  1.3160868167765336  -3.3328698989114853 
H  0.9732039662159981  0.3398656955172632  -2.3894543290799257 
H  2.5645556757329633  0.41912071053039957  -2.234271600618416 
C  2.6879904307629827  3.0664977261594064  -1.5782676918115115 
H  3.5439952444274407  2.6238236799148282  -1.4010986545483417 
H  2.585488006762791  3.8300599271999483  -0.9728871518069517 
H  2.668167137467635  3.3799174800321543  -2.506878285615663 
C  0.23847585995761622  2.802778763964394  -1.8192761489061062 
H  0.3371202105626401  3.1325499700649626  -2.737013962075371 
H  0.033571596759544464  3.5527548397155213  -1.2227978854930843 
H  -0.4904583825046387  2.1489565919056606  -1.783444075418928 
C  0.7109123095882615  2.4418122301140333  0.9783627417480549 
H  0.9313140885700011  2.1830642662353306  1.8974630012466176 
H  -0.2604650342445167  2.410940104587488  0.8541966523601916 
H  1.032401985976419  3.352440196366425  0.8094037376823526 
C  1.679832701560023  -2.4330347654885665  -1.5075494738150297 
C  0.6154080480891797  -3.108496691200358  -2.086836962025521 
H  -0.24145677227315643  -3.082573040099076  -1.6771674196636104 
C  0.7977394722317304  -3.8173003024479097  -3.2567139480597938 
H  0.06820756957660579  -4.2936465611285435  -3.6368348562579307 
C  2.0250235672340557  -3.8415960152248223  -3.8776926260311195 
H  2.136703172631072  -4.310588919288311  -4.696997728954634 
C  3.0846117566629547  -3.184816384314371  -3.3103085187070165 
H  3.938712721648748  -3.221460986674588  -3.7247532372501104 
C  2.9200716579159014  -2.4625802861029538  -2.129651132186829 
H  3.653990778673156  -1.9923535235593324  -1.7524136393859988 
C  1.305230725965024  -2.6575212164544295  1.3791741695587647 
C  0.5986543673883683  -2.302458073614617  2.5223802026504822 
H  0.11170221286080162  -1.4874939399260605  2.5437939833121144 
C  0.6026049119926677  -3.130923820482394  3.627016337069487 
H  0.11093252758999594  -2.8915475467502674  4.402989800526832 
C  1.3219512630925778  -4.304022621245633  3.5970563503021094 
H  1.3348254559782888  -4.866611507862754  4.361626176944844 
C  2.0260645596803464  -4.671391839268251  2.4649243336106794 
H  2.5167341264199043  -5.4831784818927405  2.451950007729068 
C  2.0113640445204357  -3.849018468903748  1.353261743357063 
H  2.486190598439287  -4.102012671550834  0.5695642908152476 
N  1.3820524782004484  1.4731024904941268  4.931528002573452e-17 
P  1.3820524782004484  -1.4731024904941277  -5.551115123125783e-17 
Br  -1.5839191898578664  1.5839191898578664  0.0 
C  -1.2937473829822488  -1.2398794889499034  -0.459800567 
C  -1.601562203225019  -1.4938654694550033  -1.7919791134 
H  -1.1309417375171225  -1.0428217585005106  -2.480879663 
C  -2.60218398542082  -2.411889969420291  -2.121542410022 
H  -2.8231586547736818  -2.5626138747145775  -3.032700502 
C  -3.2683208079706407  -3.09759503004543  -1.14306436557 
H  -3.9596020908062854  -3.707191723557817  -1.368328076 
C  -2.9347449854640226  -2.896087320001541  0.14198826503 
H  -3.3668350933519986  -3.405606940434718  0.81710224434 
C  -1.9675509241539992  -1.9516175659140573  0.5112421903 
H  -1.7755298364628027  -1.8022912010877177  1.4301324877 
