67

Pd  0.0  0.0  0.0 
O  0.05022038169542031  1.8745881039659333  1.1649815531365015e-14 
O  0.30359616618577323  -1.888956096894991  -1.6533037268060627e-14 
C  2.8082050650779227  1.0502576851745467  0.07425750388165234 
N  2.0461834521188065  0.014367992929057494  4.883221736695614e-15 
C  3.363308872354846  3.491053789161057  0.06458476327043328 
C  1.024116782184244  2.7680950604451326  0.0639051628445758 
C  0.6187866499392347  4.123079263526446  0.18858484560941893 
C  2.3786139213162727  2.4262356172936035  0.04754908717603004 
C  1.5371078844307635  5.113697362910157  0.24610433322324088 
C  2.9364798004140154  4.836344424487063  0.1806551292140262 
C  4.75543153734487  3.2612836944047543  -0.04194973431956112 
C  5.657548780653612  4.29586379136095  -0.015936808549026873 
C  3.8860292682831803  5.87885603905405  0.22755621195541745 
C  2.652358425651502  -1.3420321575926173  0.1080710096529726 
C  1.5908429885967634  -2.2738613216582637  -0.473032531801735 
C  5.225407912733722  5.615961317369532  0.14773420934805376 
O  3.4046505532765527  -2.9178301170374645  1.7742486519597076 
C  2.8540993611863836  -1.622850002631693  1.598566814020473 
C  3.9603915156753127  -1.5011751190433802  -0.6650079211318715 
H  3.7217279392319336  0.8972206131030683  0.15116395984722134 
H  -0.28644873225330447  4.329396196036741  0.2323436868448615 
H  1.250634333700283  5.994968564292411  0.3288095588510581 
H  5.066700808790731  2.3894916523691876  -0.13260780675119316 
H  6.565270366098258  4.117633916702992  -0.10756292435268415 
H  3.598506877634321  6.758615566776189  0.31359532084017583 
H  1.610144479325057  -2.2289971347791733  -1.4425433296742198 
H  1.7765261285442466  -3.187709419406771  -0.2091175345380745 
H  5.843084625793654  6.308385198331753  0.2021041202979029 
H  2.946303983696815  -3.339052692628074  2.3087654935721114 
H  3.450064877734529  -0.959249413135955  1.9787300825070646 
H  2.0016124871987984  -1.5650519383799444  2.0600255483051613 
H  4.202332994593056  -2.4289252560498054  -0.6942223707014812 
H  4.654288468651039  -1.0014393687935381  -0.22686294675326435 
H  3.8437361414473203  -1.172168579740151  -1.5594610449787496 
C  1.6659656953623156  -0.05701177145674166  -2.453337745270728 
H  2.451338918161416  -0.03657819799505157  -1.91852418898615 
C  1.7779732351118818  -0.14454277221520487  -3.8232610441986496 
H  2.629389879136558  -0.17455598120379298  -4.242404152890675 
C  0.61535050327534  -0.1882103789592734  -4.57129457522398 
H  0.6766435922428585  -0.2740573865517727  -5.515776093588589 
C  -0.6203297588478177  -0.01937766199533509  -2.6735461689588096 
C  -1.9133958875390862  0.02135765529663094  -1.9736851607889623 
C  -4.167123080063064  0.08565258102333988  -1.9594772684774764 
H  -4.997256514663842  0.0948542495097961  -2.420817728501296 
C  -2.9726126538695636  0.062353408523175086  0.07058793743981351 
H  -2.951423772556236  0.0748898832109613  1.0205603886777954 
C  -4.177661506664036  0.10707443469992024  -0.575517953414395 
H  -4.994285324899926  0.15178318052250422  -0.09111329041366423 
N  0.45050371568783437  -2.3602976499062282e-15  -1.8599536505384897 
N  -0.5931446911732337  -0.11369653823921427  -4.003069802325152 
N  -1.8105037156878339  5.567950630949824e-18  -0.6200463494615105 
N  -3.04525612912756  0.05351933099359105  -2.666643478530851 
N  0.0  0.0  1.91 
C  -0.9558892668779518  -0.6351664359428396  2.606247339757361 
H  -1.6412375248898  -1.0869209604112657  2.1278848152401997 
C  -0.9887127592035931  -0.6633050987635244  3.9853752975648344 
H  -1.688065522865061  -1.123252837281248  4.434585047894788 
C  0.006209992530136543  -0.015755966872378013  4.7208871260690435 
C  1.0264847536912791  0.5869233491436447  3.992129708416207 
H  1.7531863517761765  0.9976505466540657  4.44493015736264 
C  0.9828347964500802  0.5887627400870801  2.61773987366269 
H  1.680647409261261  1.0275042618222185  2.1441895336700254 
C  -0.03671636054448735  0.0674436436398349  6.214576251363301 
H  0.7871815154874275  -0.3109699251387532  6.586723897915516 
H  -0.807602799485434  -0.438090521387809  6.547799834332378 
H  -0.11832058533003509  1.0051772044509717  6.487579565309518 
