52

Fe  0.0  0.0  0.0 
S  1.33993  -1.73225  0.0 
S  1.33993  1.73225  0.0 
C  3.00228  -1.73295  -0.75891 
C  3.50181  -0.34431  -1.19224 
C  3.89153  0.62129  -0.05221 
C  2.76045  1.031  0.89725 
H  3.73481  -2.20466  -0.07184 
H  2.92493  -2.36344  -1.66978 
H  2.76662  0.13128  -1.87318 
H  4.42863  -0.5042  -1.78687 
H  4.70869  0.1669  0.54959 
H  4.29521  1.54464  -0.52321 
H  3.146  1.79032  1.6098 
H  2.42513  0.16914  1.50264 
N  -1.20079  1.43353  0.0 
N  -1.20079  -1.43353  0.0 
C  -1.74093  -2.33711  -2.28023 
H  -0.85475  -2.75184  -2.81385 
H  -2.39696  -1.85975  -3.03734 
H  -2.28467  -3.16313  -1.79196 
C  -0.68032  -0.02487  -1.99598 
H  -0.8199  -0.02808  -3.09843 
H  0.42723  -0.01355  -1.91424 
C  -3.22331  2.59495  0.73752 
H  -3.81034  1.72601  0.4613 
C  -1.82541  2.58097  0.57707 
C  -3.86732  3.73313  1.23416 
H  -4.94247  3.74031  1.34891 
C  -3.12103  4.86853  1.56793 
H  -3.62025  5.75425  1.94432 
C  -1.09044  3.73082  0.92052 
H  -0.02618  3.78575  0.79303 
C  -1.2611  1.23723  -1.32514 
C  -1.23978  -1.28936  -1.32524 
C  -1.73729  4.86357  1.41156 
H  -1.15978  5.74715  1.65814 
C  -1.77464  2.26094  -2.30811 
H  -2.15445  3.18921  -1.84724 
H  -2.56103  1.80407  -2.94026 
H  -0.92035  2.54716  -2.96617 
C  -1.12247  -3.82913  0.59697 
H  -0.22678  -3.97398  0.00606 
C  -1.73573  -2.56742  0.6758 
C  -2.9088  -2.4162  1.43229 
H  -3.40174  -1.45198  1.48001 
C  -3.45156  -3.51482  2.10592 
H  -4.36746  -3.39748  2.6764 
C  -2.82211  -4.75841  2.04066 
H  -3.24708  -5.61113  2.55046 
C  -1.65363  -4.91437  1.28188 
H  -1.17987  -5.88738  1.21813 
