61

Pd  0.0  0.0  0.0 
P  1.466961163425944  1.5297466930835317  3.6168172725700365e-18 
N  1.466961163425944  -1.5297466930835317  5.551115123125783e-17 
C  2.8927865163109505  0.9934474164063554  1.0193191104389034 
C  3.7810309831950146  1.990256301102363  1.398729276935452 
C  4.8093064907220855  1.7772085615821283  2.317464620386071 
C  4.890291634632323  0.56467995904524  2.929083729387576 
C  3.9960177281051292  -0.4884346201748575  2.62134318422216 
C  4.0583685659352815  -1.685662790878276  3.366206990764031 
C  3.2332929645966164  -2.72368419806905  3.092561763710203 
C  2.359348036612677  -2.6358358761164022  1.9958070166581143 
C  2.2629530944218184  -1.506930971266446  1.2279784479490958 
C  3.029975519242692  -0.3225016417623734  1.5778121845046666 
C  2.383873262176958  -1.3693411330588288  -1.1628429986361901 
C  0.781069069165854  -2.8197262785417663  -0.23403376707756424 
C  2.0543414451423363  1.721242534404499  -1.7184265440825872 
C  3.3231768665055617  2.2301069944615444  -2.0241931458964997 
C  3.766884563779679  2.2854266760680586  -3.327038010877262 
C  2.9510220564836454  1.8417341333295867  -4.359888598671501 
C  1.681918008499162  1.3767995933722825  -4.0886344577922795 
C  1.2340054335444122  1.3138790651337264  -2.7668664288539078 
C  1.1459903790419488  3.237268563737033  0.547744499572477 
C  0.9051487746796171  3.498904396525296  1.903494754084493 
C  0.5185009962040827  4.761883165321041  2.3152605309177585 
C  0.35633626719610056  5.778510971762117  1.3945064302825358 
C  0.5737294718725641  5.532940396778374  0.04328828828522033 
C  0.9692510156583172  4.2567236814052265  -0.37844709534236853 
H  3.684364016807514  2.8809658814273713  1.0004261246422548 
H  5.455312571752918  2.4854376199605155  2.519363045688709 
H  5.586681613312658  0.415041939865356  3.602902815500127 
H  4.708585656273936  -1.7640809633393615  4.095482436435591 
H  3.2441029703611877  -3.5253046268265575  3.6553757222915437 
H  1.8040199190462298  -3.4109188786558664  1.7687765979593895 
H  2.963365600333969  -0.582493584741055  -1.0906472527529543 
H  2.9349701545294415  -2.1766985704594553  -1.2309270166826098 
H  1.822194191510233  -1.289046607464916  -1.9621055029078731 
H  0.17164095321523742  -3.053516903236042  0.49624435480063717 
H  0.2685339061119747  -2.696627169485731  -1.0604029860003008 
H  1.4324482117205326  -3.5414862176166673  -0.35856775035657557 
H  3.901237914122513  2.5505902138184555  -1.2999501056547325 
H  4.65848990529637  2.639590056482318  -3.5243626797671075 
H  3.2774559953344236  1.8559556904660477  -5.28315330116968 
H  1.0937449551853256  1.0948134959678235  -4.8205442406385846 
H  0.33463473983693937  0.9768744732422183  -2.574284679084655 
H  1.011512829924056  2.7827745791162513  2.5640933177898804 
H  0.3602358580570548  4.9361202244401134  3.266601102572762 
H  0.08409376137192548  6.6708153618755865  1.6918046196594687 
H  0.4553455306107117  6.250832675915358  -0.6117988265375573 
H  1.1253684302663876  4.083876293536703  -1.3304090343730979 
Br  -1.654629867976521  1.654629867976521  0.0 
C  -1.352040782177733  -1.3199206589279684  -0.4819701001757076 
C  -1.6380700204479186  -1.599217458033982  -1.8139382277462257 
H  -1.1579680913617836  -1.159339363685303  -2.503515938957912 
C  -2.63068216563725  -2.52632649780156  -2.142289956238523 
H  -2.8368222554424674  -2.694399528648736  -3.0538898079700485 
C  -3.3101544432602585  -3.1961573187854975  -1.1619874135498987 
H  -3.9960123560788676  -3.811990145619169  -1.3868663427944008 
C  -2.9974710358883443  -2.9701089012107795  0.12423560353005347 
H  -3.438659168087169  -3.468581175155742  0.8017084178296768 
C  -2.0389854250767776  -2.015940632791841  0.4912562833419403 
H  -1.8619130127668426  -1.8492165108145995  1.4101568590026907 
