88

Ni  0.0  0.0  0.0 
N  1.3873006154038852  -1.468161095554571  -2.5086763938033637e-15 
C  1.842283617806913  -2.282179767360179  1.0190429429009331 
C  0.9017037684541483  -2.575346407113303  2.1632658662543327 
H  0.13245492132699388  -1.9366961201392963  2.124242896844459 
C  0.3720459904833524  -4.009045969357125  1.9756342765448451 
H  -0.031155437270890207  -4.094763814204706  1.086025328898954 
H  -0.30274530267630295  -4.199277164588806  2.6593012883544174 
H  1.1133029305980673  -4.6444301774147805  2.061343709413836 
C  1.597286680567352  -2.43489257638289  3.5153609752645383 
H  2.3382818185065624  -3.0749953844776763  3.5697162015049098 
H  0.9564089074766826  -2.616818814456314  4.233393825389672 
H  1.9445168165462925  -1.523763277254642  3.6102611488055603 
N  3.0150966179670036  -2.8567341316967223  1.0540687773283914 
C  3.8627197390199344  -2.6466930906054396  0.0058608085961416225 
C  5.158271817044512  -3.2009522434081665  0.05043405910218557 
H  5.434236146596264  -3.703924275725277  0.8076825543280672 
C  6.011938320460764  -3.015227692590395  -0.9920436539299077 
H  6.873149897306811  -3.416111248068127  -0.9682317902074711 
C  5.642299717254463  -2.237920707372314  -2.105966866611506 
H  6.260400076519603  -2.103507538682907  -2.8142581738849857 
C  4.398643542538298  -1.676438668721358  -2.1728901761740014 
H  4.152732777875352  -1.1512790371696464  -2.925336205608249 
C  3.4732718406616527  -1.8824043498142626  -1.1116369163072075 
C  2.1815081820825326  -1.2901213417486281  -1.0513314544401058 
C  1.727391997265166  -0.3436097230933935  -2.107024604194132 
C  1.5719544736268407  -0.789288110827022  -3.4486655699343562 
C  1.7166424943046699  -2.154618939350867  -3.8224584609244503 
H  1.8899454999739764  -2.8113016275921203  -3.1581957002715084 
C  1.6075565208941627  -2.5245317858664307  -5.130636364111886 
H  1.719262603706191  -3.437461973880788  -5.36784927032667 
C  1.3313799638074157  -1.5769733168317286  -6.138909549848936 
H  1.2962136404319646  -1.8461538558043407  -7.0487768737696666 
C  1.1149495019981241  -0.2683951261841298  -5.799821561028222 
H  0.8846981074786426  0.3608506989485937  -6.4746767505873635 
C  1.23041393989548  0.1574920308133213  -4.454175648060891 
C  1.044814786979443  1.5007074490471692  -4.089512811106348 
H  0.8241666057492161  2.1390039396962552  -4.759185940435045 
C  1.1745253421216757  1.9088288853216182  -2.792020893929982 
H  1.0413625928672978  2.824537130193871  -2.5751223635430804 
C  1.50416881110253  0.9907275890256236  -1.7674301009312063 
P  1.3873006154038856  1.468161095554571  -2.353090298616155e-16 
C  2.994469196062251  1.1125987757378784  0.7487568230548588 
C  4.162859243905644  1.0665615661941472  -0.014163960144779128 
H  4.125351404394079  1.2238692354269716  -0.950184210553776 
C  5.387546849279408  0.7882919939809717  0.5969440535681957 
C  6.659643207604131  0.6996970057376221  -0.2080695632080877 
H  7.345244287688136  1.2691073841567695  0.2002861150139792 
H  6.487494555356766  1.0018975451357923  -1.1245266410447308 
H  6.972463094553122  -0.22948073172633368  -0.22255785263693587 
C  5.411243942004009  0.5841154660048166  1.9661958394790495 
H  6.245788108226006  0.42143379181852364  2.389550971146055 
C  4.259707754329103  0.6089945546215891  2.7433279321278774 
C  4.325042414696674  0.33252727781592056  4.21520008928365 
H  4.40652517938477  -0.6323040777411012  4.362477325789436 
H  3.5072738238684735  0.6603228218179993  4.64582580053096 
H  5.103103180334864  0.7880202833347713  4.599024589410893 
C  3.039883728472283  0.8772996174602181  2.1207571898040105 
H  2.2394584808774844  0.8994700659883504  2.632155541605101 
C  1.2452132544766392  3.2771266396230154  -0.0225136011754193 
C  0.07571734281008902  3.8692744615700443  -0.5025414436581721 
H  -0.6834932917941912  3.3306887693089933  -0.6973518756053831 
C  0.01709177939283224  5.249398414680666  -0.6977932230721238 
C  -1.2181376835881663  5.88382779904476  -1.281442587021994 
H  -1.3539191040103995  5.555858547946931  -2.1956237923650455 
H  -1.1099128972836423  6.857549929626079  -1.297385862893637 
H  -1.9962145457413716  5.6515412563536245  -0.7322467579533298 
C  1.1210630435844122  6.025074206287058  -0.3556597342770722 
H  1.078983516376403  6.965804170581813  -0.4761144463805884 
C  2.281215084678517  5.461020358580931  0.1567533007182652 
C  3.4544507135717293  6.332798063272482  0.5232155807666975 
H  4.1246614487187525  5.796761876655829  0.9957549729142421 
H  3.1514684498569103  7.0624487557227935  1.1037798363672575 
H  3.850975098316254  6.707515811662479  -0.29071807828944 
C  2.3371352139014343  4.080319016515807  0.32291561042554484 
H  3.1240481889289358  3.6806810566375887  0.6734202905052105 
Br  -1.5839191898578664  1.5839191898578664  0.0 
C  -1.308147545195113  -1.308147545195113  0.0 
C  -2.5481111008682706  -1.081588847540519  0.5874691967409313 
H  -2.7399447190521347  -0.23895174706744582  0.9782000501948406 
C  -3.514692573752534  -2.090568128666735  0.6049610958635798 
H  -4.3504064840370384  -1.9365173000894942  1.0287619599160838 
C  -3.2692344052199704  -3.300825455744854  0.016423527177974795 
H  -3.920165040096455  -3.990528127682657  0.045080339651694334 
C  -2.0939695739763726  -3.5035118821402764  -0.6007549227026172 
H  -1.9425337635726068  -4.327915038834382  -1.0474288760065322 
C  -1.0854604411866036  -2.53050399443706  -0.5998012209931928 
H  -0.24896772463074335  -2.712575304189299  -1.0129111498427692 
