54

Fe  0.0  0.0  0.0 
O  0.3027767676563766  -1.8731411640795332  -0.03562915271690217 
O  -1.8531395671386377  -0.4126135356790601  0.03539460417411263 
N  1.8763364868713572  0.3855910195491648  0.03471594451096948 
N  -0.325973687389096  1.9001636802094284  -0.03448139596817994 
C  1.4154044734351685  -2.45284318162406  -0.4018588882494343 
C  1.3375143212257503  -3.8201117401898124  -0.7461244876727908 
H  0.5271748158659622  -4.266229234012996  -0.6455388636593168 
C  2.4132013042756078  -4.503206946825914  -1.2201775576637661 
H  2.3227235277197127  -5.397353491026756  -1.4591275303425537 
C  3.639921582415915  -3.8782596717823234  -1.3480855426176306 
H  4.369316342013695  -4.3334333240308  -1.7071650894733106 
C  3.7616237393516916  -2.582305249934919  -0.9396291171676958 
H  4.600611466374222  -2.183873218100417  -0.9845259980593478 
C  2.6847827071856862  -1.8190859087653959  -0.45686678567484806 
C  2.8869394588944326  -0.42214099302118674  -0.07632287215766898 
C  4.292385669274845  0.054137394294192405  0.18680625489519234 
H  4.828127609527181  -0.699441115664671  0.4806323646656499 
H  4.2723200937502215  0.7004732165209463  0.9086762969286125 
C  4.9577616598866685  0.687855201778154  -1.0236906726494648 
H  4.438412537045705  1.4378849780253113  -1.3186446238807723 
H  5.015124717746914  0.040436382633528285  -1.7313795677229284 
H  5.839337220215095  0.9818748565835939  -0.7863259869447223 
C  2.0551734935939625  1.7874698143667613  0.4446475481563373 
H  2.913132210122214  2.1144324328960247  0.13552371080683662 
H  2.0335825667210603  1.852035039304616  1.4117330167709226 
C  0.9542730512695752  2.6136219426129927  -0.1452437359665857 
H  0.8960692778204182  3.4604190520441085  0.3220903160940211 
H  1.14646153521714  2.7943067765397616  -1.078736316240684 
C  -1.4522284843784483  2.5341623593861713  -0.13951542407628348 
C  -1.4531475496324782  4.0381605477321525  -0.3563057715806467 
H  -2.2174455958085026  4.278936658288162  -0.9026224665452344 
H  -0.6493235461723554  4.2902064723964255  -0.8371834205948981 
C  -1.5134767111579952  4.810946834513925  0.9602909082084472 
H  -1.4844942791011604  5.753832120042717  0.7788690601157788 
H  -0.7649101899644446  4.567746320723175  1.5090898180471066 
H  -2.329376629811  4.598263403862875  1.4200172845112653 
C  -2.7355470538900657  1.8397757556145156  -0.02828865729269895 
C  -3.932837505305371  2.581954852555341  0.015485456220094992 
H  -3.877849105852816  3.5099502771098474  -0.0395434264829624 
C  -5.162844480029166  2.0145103323934888  0.13458885108817115 
H  -5.927802091928988  2.5448843656183717  0.15473647817655256 
C  -5.2614303941263465  0.6353167687877719  0.22831639053194577 
H  -6.095261095662476  0.23372023358112778  0.3229172049353459 
C  -4.14310656464589  -0.129536732867012  0.18111095204674793 
H  -4.230133058193492  -1.0543143439634792  0.22943340475270124 
C  -2.8507489987477905  0.42754438540298173  0.06142131367734219 
N  -2.7755575615628914e-16  -2.220446049250313e-16  3.0571743285133257 
C  0.0  0.0  1.91 
Cl  0.01894206453528316  0.016066844468821673  -3.198687291310586 
O  -0.4236003664461119  -1.2904246333932476  -3.667179196315212 
O  -0.8875889342029666  1.0018826797495326  -3.6733209471299197 
O  0.0  0.0  -1.79 
O  1.2922472361137949  0.27247510917489337  -3.7086497819134134 
