58

Pd  0.0  0.0  0.0 
O  0.20535739651483453  -1.9550683033559344  -1.116468029138673e-14 
N  0.2783273034730429  1.96948580286792  1.1275702593849246e-15 
N  1.9163153000121227  -0.014417499511985676  1.0037110032001806e-14 
C  2.4974773201850846  1.1239008955320806  0.03149329790264878 
H  3.4106564146608305  1.2690764265653691  0.14382720463458856 
C  1.5978440918698698  2.279066728454881  0.009818128724120651 
C  2.0499263105638805  3.5837747727252167  0.024689468844552493 
H  2.9601593028871056  3.774363016126853  0.03335613852709164 
C  1.1074529176886216  4.602500777661241  0.026815636590809922 
H  1.3809782589930208  5.491134766873818  0.03667975745644851 
C  -0.22649913284454537  4.295084999885984  0.015340600503969865 
H  -0.864890776078719  4.971116553280082  0.014018229778121744 
C  -0.6141648894417389  2.964588078584937  0.004745150048169878 
H  -1.520842647708294  2.758005996545993  0.0009853568105841586 
C  2.481942066256816  -1.2948022659080003  0.03264339578835444 
C  1.4898822843268917  -2.296739049956839  0.052156720646542726 
C  1.917717441220355  -3.633529232890483  0.13012065678487078 
H  1.2943472742449895  -4.323613179655366  0.1636156018140402 
C  3.2649617062475764  -3.9147151227522015  0.15598019455983092 
H  3.5304872577226574  -4.804304495274673  0.2078880919255557 
C  4.258006280260137  -2.920262868000605  0.10741223141869809 
C  3.8395657608560567  -1.5957509884153815  0.050313434947461516 
H  4.468033419342201  -0.9100963049529702  0.025320090173239027 
C  5.71463227798189  -3.2863708982729003  0.07374944883542149 
H  6.051229758997233  -3.1757018231697796  -0.8181579687758157 
H  5.820853203205744  -4.201900620574978  0.34444407867884663 
H  6.201037399030781  -2.7167539575794724  0.6730222073456628 
N  0.45724545426580027  -1.3881067776819085e-15  -1.8636507329844711 
C  -0.6387119915633368  0.00025269550918335975  -2.673500856820236 
C  -1.9466048389162731  -0.014611778460446619  -1.9592062346532697 
N  -1.817245454265701  -7.723338922839567e-16  -0.6163492670155836 
H  -2.5835936332812635  0.026285114344589047  -0.05511258674296038 
O  -3.006204043291771  -0.07429903008166183  -2.5896780961036665 
C  -0.5169828883381313  -0.0630815669333978  -4.017382915123295 
H  -1.2858187486496349  -0.11849412960606813  -4.573954067625065 
C  0.7706730618670999  -0.04645258751854308  -4.5766502670622415 
H  0.8852582315354994  -0.06617651347919061  -5.518776052526578 
C  1.8547784490351775  0.0003958331147515939  -3.7588387637209437 
H  2.7280169376839707  0.020435389033872285  -4.129894013166425 
C  1.6915652451988896  0.015313760563018145  -2.408143636930962 
H  2.4549362978223797  0.03690370322398581  -1.8425471726630143 
N  -8.6778190095215e-17  1.8156354331543483e-16  1.91 
C  1.1318644892271175  -0.10552265268009431  2.6095244368840818 
H  1.9565516450400349  -0.18117982981473746  2.1439968366440763 
C  1.1402380589081356  -0.10791923318497343  4.006526426765514 
N  -0.0009331312640470379  -0.023698795795048855  4.700338600661918 
C  -1.1334067576996176  0.07746915712059847  4.004545858007378 
C  -1.1296795804333915  0.09997916249513844  2.615392566319357 
H  -1.9554787968450338  0.1894512887009352  2.153551194411067 
C  2.421212339334653  -0.1962284606076783  4.777977341106648 
H  3.105427927544395  -0.631593452531259  4.226256720993372 
H  2.276138415943231  -0.7210469580344778  5.593176256409224 
H  2.720445126967504  0.7049028637033159  5.018594641297194 
C  -2.422467652257371  0.20318495724091795  4.758991275331968 
H  -2.409448265324068  -0.40014970188886567  5.530924643348035 
H  -3.1692085282199205  -0.03477128998874568  4.1707341643923215 
H  -2.53125529092162  1.1271229452649774  5.067295190259934 
