55

Ni  0.0  0.0  0.0 
P  1.3218704843894507  -1.5273370363151677  9.697163835622085e-17 
N  1.3218704843894507  1.5273370363151673  -1.8704484127425744e-16 
C  2.7497981330214647  -0.4594862959606673  0.2894007024812706 
C  4.002109928615799  -1.0266015720294808  0.5841509192151465 
H  4.107662010649782  -1.9497500235340979  0.5509409137511796 
C  5.064074284688458  -0.24013505780286393  0.9174933534047739 
H  5.887919112515904  -0.6223994081839558  1.1198706151950217 
C  4.906455598728157  1.1144519493919764  0.9522335286356947 
H  5.624609453942315  1.6502881437230377  1.2005906567513978 
C  3.7086649061399415  1.7044119409167686  0.6267727550405559 
H  3.627347016484192  2.6304849041000775  0.6249376302976626 
C  2.6154368748464334  0.9032105388003815  0.29864239246975316 
C  0.8755246527797881  2.2411766074620694  1.2361600928963457 
H  0.7477313146461124  1.6076254612562972  1.944562766430278 
H  0.0476667225766334  2.6957165017311855  1.0616196909328286 
H  1.5427176049137166  2.8806231747739277  1.4945155692770722 
C  1.514248009086508  2.5559826021886884  -1.0939785316907273 
H  2.1029866154120898  3.246935996827794  -0.7828789337184503 
H  0.6650878876151785  2.9391761973705357  -1.3249234747278724 
H  1.8964651750224277  2.1336106995493256  -1.8661128360217427 
C  0.9236328352996532  -2.268757202968109  1.6109610644977792 
C  -0.1690846052464885  -3.1122179188216386  1.7188620651332684 
H  -0.6728567765326579  -3.301193386015405  0.9596760521980229 
C  -0.5302280375494621  -3.6767042335646107  2.924021341649197 
H  -1.2620332096882072  -4.2482855147376135  2.977173849055958 
C  0.20350487560837283  -3.3824921544257944  4.041672809969165 
H  -0.03703414030588803  -3.7553289752848245  4.859222506828473 
C  1.2838337702653373  -2.5486329702914055  3.9729579614718475 
H  1.770816088312503  -2.3630900722525463  4.74373225716207 
C  1.6633439571485973  -1.975536208288067  2.7641295537012573 
H  2.3969912123772037  -1.406400834541634  2.7209692565980523 
C  2.0484026876715653  -2.8474322098495755  -1.017639037382721 
C  2.058345981149598  -4.163871592378305  -0.6054694933329581 
H  1.6392652088444686  -4.404543046196276  0.18843708656250024 
C  2.6930486561202573  -5.126077385898226  -1.3754294048230378 
H  2.675841411053118  -6.016924260326558  -1.1111737387750429 
C  3.348853410071234  -4.764710872236267  -2.53199411442605 
H  3.7876777802736683  -5.409098706485649  -3.0396559617100842 
C  3.3540649013522525  -3.4561873031216934  -2.932821595308148 
H  3.8056790087339794  -3.211610447379868  -3.7080182862513205 
C  2.696458356430757  -2.5010704622969304  -2.196223480696545 
H  2.684809313421605  -1.6180619036530963  -2.4890820389780313 
Br  -1.5839191898578664  1.5839191898578664  0.0 
C  -1.308147545195113  -1.308147545195113  0.0 
C  -2.5481111008682706  -1.081588847540519  0.5874691967409313 
H  -2.7399447190521347  -0.23895174706744582  0.9782000501948406 
C  -3.514692573752534  -2.090568128666735  0.6049610958635798 
H  -4.3504064840370384  -1.9365173000894942  1.0287619599160838 
C  -3.2692344052199704  -3.300825455744854  0.016423527177974795 
H  -3.920165040096455  -3.990528127682657  0.045080339651694334 
C  -2.0939695739763726  -3.5035118821402764  -0.6007549227026172 
H  -1.9425337635726068  -4.327915038834382  -1.0474288760065322 
C  -1.0854604411866036  -2.53050399443706  -0.5998012209931928 
H  -0.24896772463074335  -2.712575304189299  -1.0129111498427692 
