74

Pd  0.0  0.0  0.0 
C  1.76539  -2.32242  -0.19052 
C  4.15191  -3.39622  -0.94574 
H  4.74166  -4.29644  -1.21294 
H  4.64491  -2.89942  -0.08614 
H  4.10033  -2.7414  -1.84096 
C  2.62261  1.09981  0.52142 
C  4.11217  1.06051  0.10275 
H  4.52413  0.03101  0.05739 
H  4.71282  1.60468  0.85836 
H  4.27521  1.53305  -0.89199 
C  1.98429  2.40275  0.07119 
C  2.47853  3.62463  0.78528 
H  3.53319  3.71011  1.0419 
C  1.65207  4.63753  1.02304 
H  2.04848  5.53806  1.48654 
C  0.22991  4.55512  0.62066 
H  -0.35555  5.45983  0.72968 
C  -0.30076  3.40927  0.11248 
C  -1.70455  3.35174  -0.2934 
C  -2.75969  3.99403  0.54111 
H  -3.75047  3.88906  0.05979 
H  -2.54871  5.06691  0.72001 
H  -2.76646  3.45584  1.51332 
N  2.46499  -1.24461  -0.13883 
N  1.85884  -0.01484  0.0 
N  0.53823  2.26734  0.0 
S  0.00293  -2.2525  0.0 
S  2.49761  -3.94956  -0.44821 
O  -2.01033  2.75604  -1.31353 
N  -1.91201  0.0  -0.08799 
N  -0.08799  0.0  -1.91201 
C  -1.43773  -0.11863  -2.38232 
H  -1.7098  -0.17522  -3.42848 
C  -2.39805  -0.08674  -1.31714 
C  -2.95968  0.07526  0.76589 
H  -2.90031  0.15676  1.82095 
C  -4.14104  0.00735  0.00296 
H  -5.15124  0.03943  0.37165 
C  -3.76632  -0.09259  -1.3296 
H  -4.40573  -0.14948  -2.19919 
C  0.96676  -0.10579  -2.92092 
H  0.54617  -0.53498  -3.86083 
H  1.75818  -0.8038  -2.58812 
C  2.52758  1.19034  -4.3858 
H  3.24906  0.36156  -4.22548 
H  3.08421  2.14711  -4.45387 
H  1.97966  1.01947  -5.33797 
C  1.54221  1.26621  -3.22953 
H  2.06861  1.62118  -2.33276 
H  0.73362  1.98685  -3.48844 
N  0.0  0.0  1.91 
C  -0.25621  -0.31833  6.38874 
C  -1.0339  0.27753  7.39948 
C  -0.6852  0.13137  8.74715 
C  0.43403  -0.62723  9.10315 
C  1.20946  -1.23511  8.11458 
C  0.87204  -1.07634  6.75918 
C  -0.64074  -0.14499  4.93114 
C  0.26306  0.88774  4.22494 
C  -0.12944  1.19971  2.74541 
H  -1.90191  0.8726  7.14158 
H  -1.28306  0.60709  9.51631 
H  0.70254  -0.74427  10.14695 
H  2.0721  -1.82844  8.38827 
H  1.48004  -1.5551  6.00122 
H  -1.68298  0.23092  4.86387 
H  -0.61122  -1.13971  4.43544 
H  0.20527  1.83842  4.79784 
H  1.31959  0.537  4.26146 
H  -1.16435  1.59844  2.69312 
H  0.57613  1.97827  2.4125 
H  -0.72754  -0.68618  2.2086 
H  0.8937  -0.4695  2.18279 
