76

Pd  0.0  0.0  0.0 
O  0.17695940453300862  2.1038216136249988  7.688294445529209e-15 
C  1.2082801134076546  2.8451050975199177  -0.274650818223626 
C  1.1409294438703808  4.216223323544841  -0.5922485788818981 
H  0.30738335416649215  4.6246889236491295  -0.6481254960373812 
C  2.2503012282688424  4.9561138242721325  -0.8188082419159297 
H  2.134781318491369  5.85639538538816  -1.0180852128872246 
C  3.5142957170591194  4.478556100494418  -0.7731950555763081 
H  4.251687331870186  5.024300340412459  -0.9301202957469357 
C  3.64748471722191  3.1630895856028056  -0.48611747297092234 
H  4.50367177343892  2.8086313407431023  -0.40267894819112326 
C  2.5131361434849717  2.282754734244545  -0.3059873734733528 
C  2.776592111765126  0.8749737445783781  -0.04864352195923641 
H  3.659340933260281  0.6163765810081296  0.08691578293104557 
N  1.8908577663946509  -0.014236656396858054  -3.0253577421035516e-15 
N  2.4245589337061766  -1.3084635350524885  0.14374272355711995 
C  1.562154863835858  -2.338853465066563  0.09016154778895172 
O  0.3321828290723407  -2.08958495722814  -4.6351811278100286e-15 
C  2.0500081230069567  -3.681366260169433  0.19352693126531897 
C  1.1222458710240117  -4.688031791542484  0.0687997019168243 
H  0.21909215246598224  -4.483496275506056  -0.01571493193149484 
C  1.538818170223594  -6.002044129256015  0.06919451350909503 
H  0.924158709032649  -6.687894794555667  -0.0588439247681711 
C  2.860838816509231  -6.289878146200927  0.26164151786059286 
H  3.122259559265671  -7.182826751063231  0.29134276920014446 
C  3.7953146560827236  -5.341795249206986  0.40473454942046483 
H  4.68779607737094  -5.564745788739266  0.5395905080490453 
C  3.3974270399466153  -4.038290413869857  0.34937897898492953 
H  4.038253613863419  -3.3668255134926146  0.41582624923309175 
N  -1.9552004174518312  -2.525757381022231e-15  -0.044799582548168404 
N  -0.04479958254824856  -4.718447854656915e-16  -1.9552004174517517 
C  -1.4299734868531901  0.11644697812673645  -2.403774364664242 
C  -2.397595804463446  0.08065530569391943  -1.4325203625375842 
C  -3.725291579353266  0.15858069034360092  -1.7911383678955848 
C  -4.09963473313252  0.3029198130545895  -3.1336058054424583 
C  -3.112833238995944  0.40723849207659435  -4.092731800490515 
C  -1.7786047799977156  0.3019741046608517  -3.7257159998207996 
C  -3.4661574190332156  0.6448607579838674  -5.55909273237122 
C  -5.573596724433884  0.3438107837779183  -3.4951523124262116 
H  -2.4783641068720854  0.6049871012516003  0.4848879115379605 
H  -2.083499533430372  -0.896539062428016  0.2712135601844976 
H  0.24910529149316213  -0.9063575632327516  -2.0781755067402545 
H  0.5057019924783213  0.5885552385124162  -2.474746254806716 
H  -4.403533057187303  0.11321033485403173  -1.1144956493297173 
H  -1.093956067297906  0.3588366576726494  -4.396310847894855 
H  -4.098702809751064  1.362878003648053  -5.618429176572209 
H  -3.8390106435685367  -0.1435452362670512  -5.962321341454004 
H  -2.661706726697877  0.8905089465400544  -6.0194154246863825 
H  -5.762213075378224  0.08634947513526882  -4.39987481502491 
H  -5.942703518288418  1.2152147058804104  -3.330081329892005 
H  -5.965857555766419  -0.2901994329820855  -2.894949658944692 
C  0.0  0.0  1.95 
C  -0.3814243203205618  -0.5700807414963864  3.1790972484075173 
C  0.40008754572018224  0.5400840935701148  3.187724079765821 
C  -1.111933402215444  -1.6103093088257459  3.8588360062998435 
C  -1.1298671289871889  -1.6717385855249793  5.26019330742197 
C  -1.8252004493881675  -2.6939596330117763  5.896991582871226 
C  -2.4974716718596484  -3.663050965407781  5.146646180465348 
C  -2.47487155362236  -3.6082997991811387  3.7485824535728725 
C  -1.7896990206847239  -2.5821816988103565  3.1034282594461615 
C  1.1155920623761926  1.5925360222385077  3.868484833986442 
C  1.885806929597096  2.4822923149722746  3.1041652556341996 
C  2.5734464200270604  3.521227569453523  3.728338026745857 
C  2.4867444058212174  3.6811417459156313  5.1134442237210544 
C  1.720886627037424  2.7991310984692044  5.879671879491511 
C  1.0382358679722958  1.751408911180113  5.262230554821737 
H  -0.6054258283530822  -0.9291029009499704  5.842832288425656 
H  -1.8480626505316802  -2.7375566395832998  6.975888886036302 
H  -3.0333087256064717  -4.456109008411456  5.646770397294635 
H  -2.9882902712149795  -4.3624049014958  3.170446262793792 
H  -1.77844781491139  -2.533100690171125  2.024553491477422 
H  1.9465638564602745  2.3632987765420905  2.0324731199674275 
H  3.1727933550562173  4.203350291097827  3.1435670766399872 
H  3.015140275097309  4.489037461649041  5.5975853889110905 
H  1.656886651066341  2.929897234150987  6.9497675858816255 
H  0.45181884146408835  1.064489353630494  5.854321875883876 
