76

Pd  0.0  0.0  0.0 
C  2.34204  5.1948  -0.41967 
H  2.18551  6.26227  -0.52496 
C  3.62302  4.6608  -0.48212 
H  4.4731  5.30432  -0.66085 
C  3.81154  3.29449  -0.26755 
H  4.82261  2.90976  -0.28054 
C  2.71264  2.44594  0.00135 
C  1.42109  2.96524  -0.07512 
C  1.24638  4.34838  -0.2428 
H  0.2514  4.77534  -0.22686 
C  2.9994  1.05564  0.45935 
H  4.01766  0.81142  0.0551 
C  2.68107  -1.29972  0.21248 
H  2.78994  -1.48789  1.29943 
H  3.692  -1.38008  -0.24842 
C  1.791  -2.29333  -0.45769 
H  1.86665  -2.13572  -1.5538 
H  2.13839  -3.33345  -0.24882 
C  0.24485  -2.69273  1.33988 
H  0.3918  -3.79347  1.31376 
H  -0.78064  -2.50475  1.73064 
H  0.98429  -2.34366  2.08669 
C  -0.50638  -2.80185  -0.88428 
H  -0.44163  -2.47584  -1.93846 
H  -1.55633  -2.70138  -0.53393 
H  -0.26698  -3.89361  -0.87598 
N  2.08845  0.01385  0.0 
N  0.41854  -2.05289  0.0 
S  -0.10699  2.03904  0.0 
O  -1.89576  0.0  -0.10424 
N  -2.23694  -0.35102  -1.38749 
N  -1.38664  0.27728  -2.30628 
N  -0.10424  0.0  -1.89576 
C  0.8896  -0.04232  -2.93822 
C  2.20682  0.44545  -2.80367 
H  2.54335  0.9273  -1.95255 
C  3.13494  0.35862  -3.81567 
H  4.13304  0.74335  -3.6559 
C  2.77929  -0.18212  -5.05272 
H  3.51557  -0.22864  -5.84098 
C  1.47702  -0.64221  -5.2463 
H  1.20123  -1.05101  -6.21343 
C  0.5419  -0.56944  -4.20566 
H  -0.46103  -0.95259  -4.38894 
C  -3.64251  -0.01075  -1.72077 
C  -3.95279  -0.58426  -3.12249 
H  -5.01844  -0.43453  -3.39182 
H  -3.70989  -1.66471  -3.15267 
H  -3.33974  -0.07227  -3.90144 
C  -4.55851  -0.69943  -0.68856 
H  -5.61312  -0.65316  -1.00995 
H  -4.45807  -0.19182  0.29237 
H  -4.24043  -1.75348  -0.58218 
C  -3.92921  1.51883  -1.74469 
H  -3.67731  2.00283  -0.77785 
H  -5.00701  1.70448  -1.94917 
H  -3.35758  2.03567  -2.54904 
S  0.0  0.0  2.23 
N  -1.29895  0.00943  4.71498 
H  -2.18659  -0.07822  5.23185 
N  -2.6148  0.4181  2.82388 
H  -3.42691  0.50235  3.45384 
H  -2.79579  0.56402  1.82913 
C  -1.44478  0.17416  3.28977 
C  -0.10824  -0.06687  5.53147 
C  -0.2852  -0.48964  6.86675 
H  -1.26915  -0.75942  7.22054 
C  0.78861  -0.57156  7.75445 
H  0.61682  -0.89693  8.7713 
C  2.07044  -0.22908  7.33808 
H  2.90168  -0.28721  8.02936 
C  2.27819  0.20324  6.02458 
H  3.27739  0.47436  5.70868 
C  1.20327  0.28415  5.12948 
H  1.4538  0.65339  4.1503 
