42

Co  0.0  0.0  0.0 
S  1.5187604806222752  1.5644061501093631  -3.982761513594185e-15 
P  1.518760480622274  -1.564406150109364  0.0 
C  2.967425434668632  0.710354457774482  0.47520947774412514 
C  3.0452438519241554  -0.6827528403831264  0.4650011597702471 
C  4.220837920305666  -1.3201467837208538  0.8995608994869582 
H  4.2673006676354905  -2.2696889917313214  0.8849059236367112 
C  5.3095070560763995  -0.5975672797212201  1.3479274718581413 
C  5.220320521001958  0.8013495839378812  1.344418835143058 
H  5.960651261774999  1.317484645758979  1.6425683483496973 
C  4.0862411758815735  1.4345122699390558  0.9185172831065164 
H  4.054119184969405  2.383448733718758  0.9239583683943362 
C  6.54915381415192  -1.3016539326169516  1.8556314214261564 
H  6.601567448770034  -1.2094630779658635  2.8306513685169046 
H  7.343472848328433  -0.8989809694890827  1.4462776298097761 
H  6.50506257842836  -2.2520658540326663  1.6198162553251172 
C  1.1304419118422206  -2.475702420518642  1.5404123106099943 
C  1.3537336972558074  -1.8378700040900529  2.75095738086544 
H  1.7782742357266768  -0.9880060190200277  2.75697137086915 
C  0.9707050149678238  -2.4118066412844485  3.95082813016752 
H  1.13497003818081  -1.9607899408255083  4.7704085094201885 
C  0.3481214124547254  -3.641966491311544  3.9472099451060503 
H  0.08487436079213584  -4.0425861129847185  4.768525449964818 
C  0.10794083647991459  -4.288860729696669  2.762830924155184 
H  -0.3252039894408829  -5.134681209185002  2.7679109099982817 
C  0.4962659498894517  -3.7159331431250213  1.5469002983213056 
H  0.32743810093250025  -4.170877317916361  0.7301422526064143 
C  2.042194524476741  -2.883315155840235  -1.1628614734078155 
C  2.859752888787587  -3.9552933629591243  -0.8142671469944902 
H  3.0924875312749216  -4.092931680211295  0.09600678969176657 
C  3.3376869977685377  -4.824367602346994  -1.7868689585828905 
H  3.8980339640081283  -5.549303901607079  -1.537803125034432 
C  3.004371565828613  -4.6418333800288085  -3.110115028107931 
H  3.356847203870143  -5.221101167960127  -3.7755694927051273 
C  2.156303360920653  -3.6138342444542175  -3.4633430240002605 
H  1.9027454807068431  -3.497232810749008  -4.372296998104217 
C  1.6705917070701937  -2.74523030493058  -2.489974000680791 
H  1.0760498933599765  -2.0479823460653286  -2.739383654881318 
N  -2.1263933599018747  2.1263933599018756  -3.885780586188048e-16 
C  -1.3152186130069783  1.3152186130069785  -2.028274686055394e-17 
N  -2.126393359901875  -2.126393359901875  -2.220446049250313e-16 
C  -1.3152186130069785  -1.3152186130069785  0.0 
