59

Fe  0.0  0.0  0.0 
C  2.57566  0.65966  -0.21511 
C  3.86178  1.37246  -0.47807 
H  3.8995  2.45289  -0.47785 
C  4.99917  0.69706  -0.74037 
H  5.91326  1.24453  -0.9391 
C  5.04294  -0.80801  -0.77955 
H  5.96855  -1.37047  -1.0202 
C  3.74723  -1.50135  -0.51294 
C  3.6307  -2.84039  -0.56408 
H  4.48878  -3.46102  -0.80113 
C  2.3257  -3.49173  -0.29489 
H  2.24815  -4.57437  -0.33061 
C  1.23869  -2.75431  -0.01353 
H  0.31912  -3.26917  0.18259 
C  2.55274  -0.68599  -0.22314 
C  1.56337  3.78529  -1.46404 
C  0.93136  3.27808  -2.60226 
H  0.23216  2.45056  -2.52498 
C  1.20242  3.84151  -3.84303 
H  0.69745  3.44557  -4.7167 
C  2.12156  4.92016  -3.94923 
C  2.76282  5.37954  -2.78643 
H  3.4767  6.18969  -2.82712 
C  2.48663  4.81695  -1.55146 
H  2.98137  5.17861  -0.66307 
N  1.3201  1.32447  0.0 
N  1.3201  -1.32447  0.0 
N  2.38744  5.52032  -5.20305 
O  -0.12269  3.50855  0.71302 
O  2.22327  3.46975  1.19065 
O  1.78209  5.17521  -6.1796 
O  3.1573  6.42493  -5.29345 
S  1.2162  3.07878  0.0976 
C  -3.25907  2.48801  0.19355 
C  -2.45268  1.22726  -0.12695 
C  -3.06477  -0.12362  -0.02931 
H  -4.13753  -0.07372  -0.07229 
C  -2.43282  -1.3158  -0.02112 
C  -3.19864  -2.57839  -0.08215 
C  -4.57551  -2.61621  0.19112 
H  -5.14662  -1.7516  0.4799 
C  -5.27054  -3.7988  0.10778 
H  -6.32691  -3.7624  0.32964 
C  -4.61975  -4.99112  -0.24581 
C  -3.25244  -4.96914  -0.52685 
H  -2.73104  -5.87428  -0.81149 
C  -2.54902  -3.77329  -0.44703 
H  -1.50367  -3.79291  -0.70265 
C  -6.63397  -6.28421  -0.05953 
H  -6.83999  -5.95304  0.98232 
H  -6.93779  -7.34  -0.17084 
H  -7.21219  -5.65685  -0.77399 
F  -2.91219  3.45103  -0.73516 
O  -1.09253  1.41791  0.0 
O  -1.09253  -1.41791  0.0 
O  -5.28992  -6.16441  -0.32241 
F  -4.62044  2.26347  0.11181 
F  -2.95146  2.9555  1.45971 
