31

Fe  0.0  0.0  0.0 
N  1.40800343572024  -1.2306203009051977  1.507075212469303e-16 
N  1.40800343572024  1.2306203009051977  -1.507075212469303e-16 
O  1.2311213982963651  -2.557734142435928  0.0814465251212649 
O  1.214297494165079  2.5508719161312023  0.04550275485456096 
C  2.5905906212415073  -0.7242046993247642  -0.04468766179667296 
C  2.612048778968048  0.7220778450886735  -0.06601016615182233 
C  3.8208471742193  -1.6137794684024058  -0.05026117735159957 
C  3.8258483328477837  1.5994658698155462  -0.07246826705231603 
H  0.23168199840854853  -2.56099356778187  0.10472295307562009 
H  3.839208213927736  -2.1584705233987735  0.7829021720750201 
H  3.7919958467956807  -2.2135340592027553  -0.8484329895072292 
H  4.641031577216504  -1.0388783600104818  -0.09436696665254558 
H  3.841738687005333  2.1540127349192852  0.7598884059240989 
H  4.648576141771833  1.028205327889741  -0.10612693104363931 
H  3.8035243658852984  2.196446290551018  -0.8724277396242478 
N  -1.4080034357202402  1.230620300905198  0.0 
N  -1.4080034357202402  -1.230620300905198  0.0 
O  -1.231121398296363  2.557734142435928  0.08144652512126528 
O  -1.21429749416508  -2.550871916131203  0.04550275485456064 
C  -2.590590621241508  0.724204699324764  -0.04468766179667044 
C  -2.6120487789680498  -0.7220778450886738  -0.06601016615182247 
C  -3.8208471742193084  1.6137794684024056  -0.05026117735159507 
C  -3.8258483328478023  -1.599465869815546  -0.07246826705231532 
H  -0.23168199840854942  2.5609935677818694  0.10472295307561919 
H  -3.8392082139277526  2.1584705233987735  0.782902172075024 
H  -3.7919958467956953  2.213534059202755  -0.8484329895072313 
H  -4.641031577216529  1.038878360010482  -0.09436696665254309 
H  -3.8417386870053485  -2.154012734919286  0.7598884059241016 
H  -4.6485761417718585  -1.0282053278897414  -0.10612693104363843 
H  -3.8035243658853157  -2.1964462905510187  -0.8724277396242502 
