76

Pd  0.0  0.0  0.0 
S  -0.06825  2.1304  0.0 
N  0.56084  -2.1527  0.0 
N  1.90741  0.0223  0.0 
N  2.33287  1.28437  0.34746 
H  3.31775  1.46502  0.58946 
N  1.82463  3.59089  0.84495 
H  2.81454  3.7017  1.11833 
H  1.21487  4.41314  0.88163 
C  1.83207  -2.22263  -0.56634 
C  -0.27514  -3.22396  -0.03014 
H  -1.26355  -3.14297  0.40042 
C  0.12846  -4.42399  -0.62782 
H  -0.55328  -5.26466  -0.64692 
C  1.39694  -4.52174  -1.21789 
C  1.80943  -5.71022  -1.8476 
H  1.16377  -6.57682  -1.86996 
C  3.06367  -5.78428  -2.46648 
H  3.38157  -6.69394  -2.95554 
C  3.90756  -4.67725  -2.47291 
H  4.87225  -4.72301  -2.96206 
C  3.51094  -3.49973  -1.85678 
H  4.19768  -2.67  -1.9183 
C  2.26297  -3.40905  -1.20503 
C  2.71236  -0.99197  -0.60486 
C  4.07581  -1.07684  0.14689 
H  4.59842  -2.04966  0.072 
H  4.74466  -0.3185  -0.31541 
H  4.00407  -0.84869  1.23369 
C  1.35864  2.33063  0.40438 
Si  0.79593  0.53613  -3.2038 
N  -1.78828  0.0  -0.21172 
N  -0.21172  0.0  -1.78828 
N  -2.39187  0.36112  -2.71147 
C  -2.98213  -0.3097  0.52949 
C  -3.30617  0.18089  1.79521 
H  -2.65507  0.87597  2.31346 
C  -4.50002  -0.21494  2.41987 
H  -4.75064  0.16868  3.39704 
C  -5.39196  -1.08723  1.7834 
H  -6.31156  -1.38264  2.26851 
C  -5.09279  -1.57672  0.51671 
H  -5.77936  -2.25272  0.01244 
C  -3.90995  -1.19994  -0.09982 
H  -3.71372  -1.62232  -1.08062 
C  -1.62397  -0.30475  -1.65493 
C  -3.69826  0.9385  -2.38868 
H  -3.6513  1.52651  -1.45264 
H  -4.50046  0.17129  -2.32865 
H  -3.97316  1.634  -3.20924 
C  -2.5263  -0.64307  -3.79432 
H  -1.62022  -1.28022  -3.87985 
H  -2.66058  -0.15204  -4.77827 
H  -3.35031  -1.36413  -3.60737 
C  2.40047  1.35234  -2.72193 
H  3.08544  0.65886  -2.23204 
H  2.18988  2.22156  -2.07523 
H  2.93819  1.68444  -3.62432 
C  1.23639  -0.95498  -4.25012 
H  1.74615  -1.70512  -3.61182 
H  1.9132  -0.64002  -5.06706 
H  0.34674  -1.42577  -4.70434 
C  -0.09896  1.83555  -4.19855 
H  -0.35151  2.68599  -3.53255 
H  -1.02183  1.43471  -4.6483 
H  0.56557  2.17981  -5.01487 
O  1.4019  -0.5793  3.77638 
O  -0.43575  0.56747  4.32239 
C  0.0  0.0  1.95 
H  -0.96894  -0.4853  2.00558 
H  0.61924  -0.85631  1.72761 
C  0.39879  0.02863  3.40449 
C  -0.23189  0.40942  5.67706 
H  -0.24966  -0.67259  5.94309 
H  -1.03877  0.92606  6.2301 
H  0.75208  0.83829  5.96498 
