83

Pd  0.0  0.0  0.0 
P  1.4156936515362348  -1.5773114736791838  1.841036524330415e-16 
N  2.9913797088821448  -0.9923172823621709  0.018979852768489357 
N  1.4156936515362348  1.5773114736791842  -3.041872472124764e-16 
C  3.3737934783481656  0.18425936782294217  0.8455963449593814 
C  2.2522212170654083  1.1630363061526292  1.172136859620381 
C  2.8307469510898042  2.3694828683913864  1.8916032435007126 
C  3.5112204453219147  1.9920602857664136  3.192095484066679 
C  4.585769812552636  0.9475710187498425  2.9419448724918746 
C  4.027167962633516  -0.22660812462504126  2.172747386451798 
C  4.1387983995226385  -1.8713731651966437  -0.2933137962591137 
C  5.205914129717236  -1.2344275987914506  -1.1351919904226733 
C  6.524515826408575  -1.3069904862806454  -0.7399982495284501 
C  7.548862682012056  -0.8295072671652417  -1.5460491752636094 
C  7.2366645813429145  -0.2519911391203401  -2.767631672595078 
C  5.933632633803636  -0.15907646282108673  -3.163085420358672 
C  4.914084077396726  -0.6562432514267845  -2.3426792371566325 
C  2.17196936277566  2.132768800668868  -1.146456918720811 
C  1.2458582805772473  2.70328802912598  -2.184469444362967 
C  0.6414382627787395  3.9346038011908093  -1.9911265066878308 
C  -0.29191967755296333  4.412511885661717  -2.92388876365213 
C  -0.5899508326915894  3.6636307580523853  -4.0330936037413645 
C  0.01705388635987659  2.4633795891541768  -4.21434688676744 
C  0.9359297159801506  1.9766850980468744  -3.3080528660073467 
C  1.058464740119947  -2.4910458432379126  1.532215447231717 
C  2.014980786093679  -3.2911508421930424  2.1433028832355916 
C  1.7125706650767163  -3.981389940917457  3.2974643473725145 
C  0.48153523710419166  -3.8885767537677305  3.852763417574887 
C  -0.4597433613781261  -3.083811489467002  3.2780902936042486 
C  -0.1826266265810501  -2.3706350536321112  2.1344060991409104 
C  1.4494781094833615  -2.8521513442785067  -1.2919515489102382 
C  1.4912570463702504  -2.4336581132235864  -2.6060190456522627 
C  1.553323638597996  -3.351670607371279  -3.6348962242882616 
C  1.4983730191533264  -4.685102237773394  -3.3462357551107225 
C  1.425019220414113  -5.112532809509112  -2.064565666298371 
C  1.399280328033852  -4.20078396091581  -1.0372392836390718 
H  1.0006824545912496  2.192989965977731  0.30767809563126564 
H  4.047313358338695  0.6820966486032339  0.3379742974448551 
H  1.6551070727404205  0.7129917861922171  1.8041645162151339 
H  3.4736058524653632  2.8074588335243886  1.3127192336265168 
H  2.1177907777104723  3.000443852703874  2.0786595481678853 
H  2.854573844494471  1.6386783765485458  3.8130143015133053 
H  3.9106953849841695  2.7796285947082047  3.591656081889328 
H  5.314060799918186  1.3456402653618824  2.440455129203084 
H  4.941808450296746  0.6378233892214903  3.790976046498413 
H  3.367800978083496  -0.6790229690663111  2.721156292483252 
H  4.741380609033121  -0.8556988156890311  1.9901016689013176 
H  3.8103732688786685  -2.659749672152126  -0.7536442176328976 
H  4.539149261294479  -2.166292337955172  0.5410094318833107 
H  6.731608735272567  -1.6852153010716284  0.08456876810843071 
H  8.434133835427641  -0.8970220363005984  -1.2705046582089627 
H  7.914058986306855  0.07191142770008856  -3.3164725669630934 
H  5.721408585095012  0.2358882828209718  -3.9782027756208507 
H  4.027943620286764  -0.5956839728099922  -2.62103719742786 
H  2.710413310559767  1.43215112087586  -1.5462381111950683 
H  2.7689991517950525  2.8279361936013183  -0.8309113327479387 
H  0.8548579142480462  4.444897733892978  -1.2432817001844487 
H  -0.706784756646273  5.234504812636207  -2.7893490886383625 
H  -1.2048985433439503  3.976676965627511  -4.65735131101158 
H  -0.19196505112554818  1.9573701431325243  -4.966672417577966 
H  1.3455072132328518  1.155329572129041  -3.4584154736877255 
H  2.865847613902902  -3.3610628265031433  1.7718862764667 
H  2.3586760557561446  -4.516609448343488  3.697547917399609 
H  0.2785066532681171  -4.3707963487509724  4.622452781123393 
H  -1.302579698371774  -3.014945836225646  3.6651911730230218 
H  -0.8253028896787749  -1.8093857634490764  1.7666420509798766 
H  1.4755037135757632  -1.523838246350619  -2.8007587240671183 
H  1.632991627096262  -3.066287854813204  -4.515103328412647 
H  1.5094589898466546  -5.305707480513866  -4.039067649538823 
H  1.3934928111674891  -6.023126889351666  -1.8781732381374983 
H  1.3476974892740525  -4.5010940346738515  -0.15833580751388415 
Br  -1.654629867976521  1.654629867976521  0.0 
C  -1.3788582233137676  -1.3788582233137676  0.0 
C  -2.618821778986925  -1.1522995256591737  0.5874691967409313 
H  -2.8106553971707884  -0.30966242518610043  0.9782000501948407 
C  -3.5854032518711887  -2.161278806785389  0.6049610958635797 
H  -4.421117162155692  -2.007227978208148  1.0287619599160838 
C  -3.3399450833386255  -3.3715361338635086  0.016423527177974573 
H  -3.9908757182151104  -4.061238805801311  0.045080339651694 
C  -2.164680252095028  -3.57422256025893  -0.6007549227026177 
H  -2.0132444416912625  -4.3986257169530365  -1.0474288760065327 
C  -1.1561711193052586  -2.601214672555715  -0.5998012209931929 
H  -0.3196784027493984  -2.7832859823079534  -1.0129111498427692 
