74

Pd  0.0  0.0  0.0 
O  0.12251  -2.01584  0.0 
N  1.96636  0.0152  0.0 
N  0.31113  2.00065  0.0 
N  2.48655  1.24792  -0.48062 
H  3.4804  1.37751  -0.18123 
N  2.09684  3.62694  -0.09992 
C  1.70861  2.26488  0.21022 
C  1.20554  -2.82365  0.14017 
C  2.5377  -2.36081  0.33471 
C  2.92904  -0.92122  0.55016 
H  3.92725  -0.75006  0.07922 
C  0.96303  -4.20773  0.1453 
H  -0.05105  -4.57868  0.05528 
C  2.00522  -5.12437  0.29767 
H  1.79924  -6.18715  0.32682 
C  -0.65322  3.03812  -0.01915 
H  -1.71019  2.8124  0.01883 
C  3.57784  -3.30514  0.4394 
H  4.60461  -2.97976  0.56264 
C  3.31552  -4.67231  0.41838 
H  4.12907  -5.37941  0.52465 
C  1.22871  4.58019  -0.20858 
H  1.57676  5.59239  -0.37759 
C  -0.22497  4.30676  -0.09505 
H  -0.93079  5.13018  -0.11478 
Br  -3.52213  -0.32794  -4.39151 
Cl  -8.2394  2.71205  0.03385 
N  -1.93449  0.0  -0.06551 
C  -0.06551  0.0  -1.93449 
C  0.65897  -0.23806  -4.24507 
H  1.46064  -0.3355  -4.98258 
C  0.98044  -0.08125  -2.87689 
H  2.02361  -0.08564  -2.5939 
C  -0.65387  -0.29121  -4.68075 
H  -0.9034  -0.43256  -5.73536 
C  -1.70086  -0.19774  -3.76299 
C  -1.39059  -0.06266  -2.41319 
C  -2.41058  -0.04048  -1.39833 
H  -3.45901  -0.0701  -1.63798 
C  -2.9177  -0.09337  1.03378 
H  -2.48951  0.29372  1.98144 
H  -3.16881  -1.16196  1.17296 
C  -4.23203  0.63602  0.75362 
C  -5.33158  -0.07872  0.23472 
H  -5.23924  -1.13282  0.00155 
C  -6.55314  0.55931  -0.00079 
H  -7.38411  -0.00019  -0.40427 
C  -6.69777  1.91732  0.29952 
C  -5.6131  2.63585  0.82125 
H  -5.73059  3.68637  1.05862 
C  -4.38614  2.00152  1.04286 
H  -3.56561  2.57122  1.45826 
S  0.09474  -1.37706  2.7903 
O  0.0  0.0  1.83 
O  -1.37937  -2.10659  2.32635 
O  1.80287  -1.39929  2.93121 
N  -0.49174  0.87203  9.13525 
C  -0.4199  -0.44899  4.25049 
H  -0.74311  0.58514  3.94698 
H  -1.28076  -0.95166  4.70778 
C  0.74761  -0.24296  5.20128 
H  1.44935  0.52151  4.80485 
H  1.2963  -1.20073  5.30426 
C  0.22012  0.15895  6.54367 
C  -0.54793  1.25322  6.70393 
H  -0.81764  1.86948  5.85517 
C  -1.11368  1.61553  8.05833 
H  -1.02126  2.70821  8.2279 
C  0.19184  -0.36263  8.90526 
H  0.49051  -0.97511  9.76588 
C  0.53201  -0.72612  7.69254 
H  1.08422  -1.64725  7.52647 
H  -0.65946  1.17677  10.11238 
