69

Ni  0.0  0.0  0.0 
P  1.2008831822871033  -1.6241858214194582  -4.411662253803589e-16 
N  3.73650779090159  -1.7211624160447854  -1.2873241061534308 
N  1.2008831822871033  1.6241858214194582  -4.209500016672167e-16 
C  2.8091120337966142  -1.01092262710743  -0.5831368498686025 
C  3.199279030788569  0.31415204514842693  -0.4970225223480791 
C  4.441639681100063  0.41576280472011656  -1.2306446717526032 
C  4.734221975775224  -0.8447097058764905  -1.7205784334724072 
C  5.85022128644918  -1.1339316987082353  -2.5153946307391895 
C  6.689340950943979  -0.06910212244182169  -2.7771815138454263 
C  6.426254278470797  1.2046515070486523  -2.2948720653304067 
C  5.313402280469411  1.4754653506368136  -1.5577881334302761 
C  2.543430640578328  1.4231599531387886  0.1523224622891196 
C  0.643209258885594  2.7690741774665995  0.4574194326279255 
C  1.3106768332549161  3.770591933962213  1.082045897476757 
C  2.6957821635787695  3.5529098342065284  1.346679790533661 
C  3.4438355203416835  4.542741877312886  2.071408182329971 
C  4.748145930670271  4.25084793651634  2.4357411904896993 
C  5.313170439934572  3.021993479915007  2.1256670083627474 
C  4.62390443600069  2.085637032922456  1.3887834626131392 
C  3.289479664975608  2.3725822142273216  0.9592672889937873 
C  0.8159253557488813  -3.119832152623724  -0.9598579133091643 
C  0.8186166934398311  -4.388730161595908  -0.40021965556772326 
C  0.4250641098725789  -5.474913784636161  -1.1298699217958046 
C  0.03938823985133055  -5.329382462491369  -2.4491390404968265 
C  0.050676801372139924  -4.066735579385513  -3.0294501268650644 
C  0.41430734523566437  -2.954381170072264  -2.295773511692604 
C  1.4753372933889515  -2.2081978737910397  1.7110592022440587 
C  2.730697469884059  -2.1674602906109475  2.3236271875215055 
C  2.8600003040362956  -2.510338588559208  3.652312123793577 
C  1.7493050319704335  -2.9172039430556977  4.383691407011951 
C  0.5093602151456746  -2.950796192341753  3.7788649260958835 
C  0.35850929051842684  -2.6191852073811215  2.457323340222566 
C  3.866749849403091  -3.1915768129102924  -1.4596790239479018 
H  6.015297004327824  -1.9874638264474418  -2.8456146245067457 
H  7.451456361661938  -0.20945935065648877  -3.291308190097615 
H  7.02490743956961  1.8910760345239934  -2.4794377739186584 
H  5.133053342858037  2.3427945603998097  -1.27586657945765 
H  -0.27170706290464075  2.8773287704332704  0.33405696984665656 
H  0.8862135661017558  4.560661621849605  1.32618477827863 
H  3.0608828304405096  5.362062938025636  2.2920592117179823 
H  5.250542765367577  4.885593097078699  2.8945881820116948 
H  6.174290527017964  2.8269342411124403  2.419884698142417 
H  5.021411511262469  1.2739604515766971  1.1731555599388934 
H  1.0907497295862618  -4.5024737662768946  0.48206976578556565 
H  0.4166068607424771  -6.31669931925259  -0.737213648895834 
H  -0.22651901932495022  -6.0710085800911955  -2.9439120907038534 
H  -0.188728701014103  -3.9688360731202548  -3.922891816120804 
H  0.39240308153504566  -2.1080104735231386  -2.6804363605026897 
H  3.4784812017351863  -1.908870722557125  1.8351156772450676 
H  3.6940203018246383  -2.4714460251794867  4.06212025182768 
H  1.841196254105005  -3.1640438980120966  5.274967486536012 
H  -0.23545740622429245  -3.201387814699531  4.275733771668712 
H  -0.47954451562505795  -2.666202647745956  2.05574714781323 
H  4.787046569049608  -3.416208308388528  -1.613655285258185 
H  3.3382643705779844  -3.473464081572613  -2.209490344506029 
H  3.5575099222512185  -3.635339524968755  -0.664765379052034 
Br  -1.5839191898578664  1.5839191898578664  0.0 
C  -1.2937473829822488  -1.2398794889499034  -0.459800567 
C  -1.601562203225019  -1.4938654694550033  -1.7919791134 
H  -1.1309417375171225  -1.0428217585005106  -2.480879663 
C  -2.60218398542082  -2.411889969420291  -2.121542410022 
H  -2.8231586547736818  -2.5626138747145775  -3.032700502 
C  -3.2683208079706407  -3.09759503004543  -1.14306436557 
H  -3.9596020908062854  -3.707191723557817  -1.368328076 
C  -2.9347449854640226  -2.896087320001541  0.14198826503 
H  -3.3668350933519986  -3.405606940434718  0.81710224434 
C  -1.9675509241539992  -1.9516175659140573  0.5112421903 
H  -1.7755298364628027  -1.8022912010877177  1.4301324877 
