65
unq_CSD-CAXZOQ-02-a
N  1.0803999999999991  -1.149  1.3326 
N  -1.1668000000000003  1.1203000000000003  1.2739 
Si  2.353999999999999  -2.264  0.9862 
C  0.7076999999999991  -1.057  2.776 
H  0.05550000000000033  -1.749  2.9623 
H  1.4970999999999997  -1.2538999999999998  3.303 
Si  -2.2415000000000003  2.4288999999999996  0.915 
C  -1.1478000000000002  0.6951999999999998  2.7022 
H  -1.7929999999999993  -0.020800000000000374  2.8129 
H  -1.4482999999999997  1.4424000000000001  3.2426 
C  0.15429999999999922  0.23139999999999983  3.2409 
H  0.8123000000000005  0.9196999999999997  3.0496 
H  0.0708000000000002  0.1817000000000002  4.206 
C  3.2537000000000003  -4.403  2.672 
H  4.094800000000001  -4.0165  2.578 
C  3.093300000000001  -5.5349  3.4625 
H  3.8248000000000015  -5.9049  3.8988 
C  1.8352000000000004  -6.111  3.6035 
H  1.6641999999999992  -6.819599999999999  4.1825 
C  0.7391000000000005  -5.557  2.9539 
H  -0.10200000000000031  -5.9417  3.0479 
C  0.9002999999999997  -4.4251  2.1617 
H  0.1681000000000008  -4.0533  1.727 
C  2.1585  -3.8481  2.0208 
C  4.0440999999999985  -1.576  1.4182 
C  4.219900000000001  -0.4699  2.2373 
H  3.4703  -0.0484  2.5914 
C  5.4594000000000005  0.02149999999999963  2.5444 
H  5.5374  0.7633000000000001  3.1016 
C  6.580499999999999  -0.5655999999999999  2.0409 
H  7.4199  -0.2251000000000003  2.249 
C  6.4620000000000015  -1.6587999999999998  1.2269 
H  7.225299999999999  -2.0656  0.8811 
C  5.210099999999999  -2.1576  0.9164 
H  5.143500000000001  -2.8993  0.3608 
C  2.3260000000000005  -2.6637  -0.8358 
H  1.5218000000000007  -3.1478  -1.0439 
H  3.0894999999999992  -3.2012  -1.0574 
H  2.3491999999999997  -1.8483999999999998  -1.3427 
C  -3.9964999999999993  2.024  1.4669 
C  -4.8589  2.9810999999999996  1.9654 
H  -4.559699999999999  3.8534999999999995  2.0812 
C  -6.1727  2.6498  2.2977 
H  -6.7451  3.3105  2.6183 
C  -6.6266  1.3872  2.1634 
H  -7.5019  1.1755000000000004  2.395 
C  -5.7998  0.4320000000000004  1.6884 
H  -6.1085  -0.4403999999999999  1.5894 
C  -4.491899999999999  0.7430000000000003  1.3461 
H  -3.933300000000001  0.07120000000000015  1.0288 
C  -1.1666000000000007  5.0627  1.1111 
H  -0.9651999999999994  4.9540999999999995  0.2098 
C  -0.8605999999999998  6.2572  1.7522 
H  -0.45509999999999984  6.947299999999999  1.2806 
C  -1.1607000000000003  6.419099999999999  3.0999 
H  -0.9002999999999997  7.208699999999999  3.5145 
C  -1.7668  5.3866000000000005  3.8065 
H  -1.9681999999999995  5.4933000000000005  4.7078 
C  -2.0721000000000007  4.192100000000001  3.1637 
H  -2.4784000000000006  3.5000999999999998  3.637 
C  -1.7720000000000002  4.0301  1.816 
C  -2.2369000000000003  2.7123999999999997  -0.9231 
H  -1.3514999999999997  2.9589999999999996  -1.2067 
H  -2.8503000000000007  3.4173  -1.1413 
H  -2.502700000000001  1.9062000000000001  -1.3712 
