26
unq_CSD-MUBPOO-02-a
N  0.04899999999999949  0.2850999999999999  2.2000999999999995 
N  -1.9959000000000002  0.2680000000000007  0.5478000000000001 
Si  1.4961000000000002  0.5418000000000003  3.1074999999999995 
C  -1.2081  0.19390000000000107  2.7826999999999997 
C  -2.3245  0.2124000000000006  1.8947999999999996 
C  -3.6297  0.15399999999999991  2.3885 
C  -3.87  0.05269999999999975  3.7571 
C  -2.7986  0.00140000000000029  4.627699999999999 
C  -1.4888  0.06840000000000046  4.1578 
C  2.8396999999999997  1.3574000000000002  2.0767 
C  1.2615999999999996  1.6753999999999998  4.601699999999999 
C  2.2661999999999995  -1.0395000000000003  3.7571 
H  -2.6864  0.24950000000000117  0.03249999999999975 
H  -4.3619  0.18390000000000128  1.7844000000000002 
H  -4.7595  0.018500000000001293  4.0863 
H  -2.958  -0.0799000000000003  5.561 
H  -0.7697000000000003  0.02710000000000079  4.777099999999999 
H  2.7996999999999996  1.0181000000000004  1.1584999999999996 
H  3.7173000000000007  1.153500000000001  2.4621999999999997 
H  2.7032999999999996  2.3285  2.0723999999999996 
H  0.5226999999999995  2.2942  4.4284 
H  2.0846  2.1844  4.7576 
H  1.0576999999999996  1.1349999999999998  5.394299999999999 
H  1.6281999999999996  -1.4971999999999994  4.343999999999999 
H  3.0786999999999995  -0.8255999999999997  4.259499999999999 
H  2.4932  -1.6255999999999986  3.0035000000000003 
