37
unq_CSD-SOWJUK-02-a
N  -0.7031000000000001  1.1521  1.5552000000000006 
N  -1.7001999999999997  -1.0771999999999995  -0.3743999999999996 
C  1.9451  2.3428000000000004  1.8176 
H  2.334900000000001  1.4670000000000005  1.8607999999999998 
H  2.4702  2.9528  2.3407000000000004 
H  1.9236000000000004  2.6389999999999993  0.9056000000000002 
C  0.23500000000000032  1.7661999999999995  4.2911 
H  -0.6624999999999996  1.7077999999999998  4.625500000000001 
H  0.7256  2.4147999999999996  4.801499999999999 
H  0.6608999999999998  0.9091000000000005  4.3695 
C  -0.5294999999999996  3.9955  2.3679 
H  -0.49789999999999957  4.2905999999999995  1.456 
H  -0.025399999999999423  4.5992999999999995  2.9183 
H  -1.4425  3.9778000000000002  2.6671 
C  -2.1525  1.1406  1.8527999999999998 
H  -2.5938999999999997  1.7661999999999995  1.2559999999999998 
H  -2.2833999999999994  1.4618000000000002  2.7599000000000005 
C  -2.8287999999999993  -0.19930000000000003  1.7216 
H  -3.7182  -0.12629999999999963  2.1056000000000004 
H  -2.3357  -0.8373999999999997  2.2608 
C  -2.9684999999999997  -0.7726999999999995  0.32960000000000056 
H  -3.4903  -1.5892  0.38720000000000043 
H  -3.4734999999999996  -0.14400000000000013  -0.2096 
C  -0.2477999999999998  -2.4953  -2.4734999999999996 
H  -0.08549999999999969  -1.6808999999999994  -2.9551 
H  -0.3046999999999995  -3.2262  -3.0927 
H  0.4733999999999998  -2.6527  -1.8592 
C  -2.1929  -3.9873999999999996  -0.6991999999999998 
H  -1.4627  -4.2105  -0.11679999999999957 
H  -2.2927999999999997  -4.6704  -1.3663999999999996 
H  -3.0024999999999995  -3.9227  -0.1856 
C  -3.2197999999999998  -1.9958  -2.7502999999999997 
H  -4.036099999999999  -1.8216999999999999  -2.2767 
H  -3.3398999999999996  -2.7548999999999997  -3.3263 
H  -2.9863  -1.2283999999999997  -3.2782999999999998 
Si  0.1994000000000007  2.2836999999999996  2.4942000000000006 
Si  -1.8517000000000001  -2.3516  -1.5279999999999996 
