34
unq_CSD-UBASEV-02-a
N  -1.9863  0.3770000000000002  -0.13539999999999974 
N  -0.7279  1.6703000000000001  1.0882000000000005 
N  -3.1334  2.2157  0.7880000000000003 
C  -3.1784  -0.24509999999999987  -0.7129999999999992 
C  -3.8971  0.6306000000000003  -1.7212999999999994 
C  -4.1155  -0.7626  0.3785000000000007 
C  -0.2668999999999997  2.6756  2.0541 
C  0.32820000000000027  3.8897000000000004  1.3672000000000004 
C  0.7493000000000003  2.0686999999999998  3.0167 
C  -3.2681999999999998  3.4987000000000004  1.4749000000000008 
C  -4.0807  4.4003  0.5792000000000002 
C  -3.9156999999999997  3.2986000000000004  2.8291000000000004 
C  -2.0393999999999997  1.5679000000000003  0.6559000000000008 
H  -2.8632999999999997  -1.0412  -1.2106999999999997 
H  -3.2653999999999996  0.9390000000000001  -2.3902999999999994 
H  -4.2861  1.3942  -1.2677999999999994 
H  -4.5997  0.11759999999999993  -2.1520999999999995 
H  -3.6165  -1.3224999999999998  0.9936000000000007 
H  -4.8271  -1.2818  -0.026099999999999568 
H  -4.4959  -0.012299999999999756  0.8598000000000008 
H  -1.0486999999999997  2.9755000000000003  2.5827 
H  -0.3268  4.2729  0.7635000000000005 
H  1.1134999999999997  3.6231999999999998  0.8631000000000002 
H  0.5787999999999998  4.5484  2.0329000000000006 
H  0.36149999999999993  1.2918000000000003  3.4491000000000005 
H  0.9914000000000001  2.7263  3.688900000000001 
H  1.5427000000000004  1.8032  2.5256000000000007 
H  -2.3690999999999995  3.8936  1.6022000000000007 
H  -3.6283  4.5019  -0.2740999999999998 
H  -4.1798  5.2696000000000005  0.9985000000000008 
H  -4.9559  4.009  0.4356 
H  -3.3608  2.7151000000000005  3.3708 
H  -4.7912  2.8960999999999997  2.7133000000000003 
H  -4.0100999999999996  4.1561  3.272900000000001 
