81
unq_CSD-JUGFIC-02-b
N  -0.1956  1.6313999999999997  1.2293000000000003 
N  -0.09870000000000001  -0.7959  1.8860999999999999 
Si  0.1271  0.7417000000000002  2.7244 
C  -1.0264  1.1071000000000004  4.171 
H  -1.9639  1.0039000000000002  3.8368 
C  -0.8741  2.5568000000000004  4.6578 
H  -1.6204  2.7834  5.251600000000001 
H  -0.8759  3.1627000000000005  3.8877000000000006 
H  -0.029199999999999893  2.6496  5.1452 
C  -0.8466  0.12460000000000004  5.3442 
H  -1.5714000000000001  0.25340000000000007  5.9921999999999995 
H  0.014100000000000001  0.29159999999999986  5.7808 
H  -0.8691  -0.7946  5.0063 
C  1.9361  0.9274999999999998  3.2218 
H  2.4615  0.7256000000000005  2.3958000000000004 
C  2.3457  2.3505  3.6301000000000005 
H  3.3167999999999997  2.4503999999999997  3.5390000000000006 
H  2.0875000000000004  2.5104  4.5604000000000005 
H  1.8955  2.999  3.0484 
C  2.4235999999999995  -0.07679999999999998  4.2713 
H  3.4002999999999997  -0.1423000000000001  4.2318 
H  2.0290999999999997  -0.9556  4.0898 
H  2.1519000000000004  0.2261000000000002  5.1636999999999995 
C  -0.5805  2.9897000000000005  0.9916 
C  0.3667999999999998  3.9331  0.5246000000000004 
C  -0.0596000000000001  5.2371  0.2751000000000001 
H  0.5753999999999999  5.8782  -0.02190000000000003 
C  -1.3648  5.6251999999999995  0.44430000000000014 
H  -1.6257  6.5222999999999995  0.27580000000000027 
C  -2.2891  4.7006  0.8603000000000001 
H  -3.1959  4.9666999999999994  0.9624000000000001 
C  -1.9337  3.3816  1.1358000000000006 
C  1.7948000000000002  3.5494  0.1990000000000003 
H  1.9803  2.6605000000000003  0.6153000000000004 
C  1.9734999999999998  3.4137999999999997  -1.3163999999999998 
H  1.3065  2.7887999999999997  -1.6696999999999997 
H  2.873  3.0753999999999997  -1.5108 
H  1.8549  4.2898  -1.7390999999999999 
C  2.8214999999999995  4.555899999999999  0.7433000000000001 
H  3.7257  4.197100000000001  0.6245000000000003 
H  2.6537999999999995  4.710099999999999  1.6968000000000005 
H  2.7401  5.4033  0.25580000000000025 
C  -3.0412  2.4193000000000002  1.5114 
H  -2.6155  1.5524999999999998  1.774 
C  -3.9593999999999996  2.1415  0.31130000000000013 
H  -3.4354  1.7463000000000002  -0.4154 
H  -4.3608  2.9826  0.005800000000000249 
H  -4.6674  1.5198000000000005  0.5798000000000001 
C  -3.8771000000000004  2.9040000000000004  2.6997 
H  -3.2838000000000003  3.1327000000000003  3.4449000000000005 
H  -4.4937  2.1938999999999997  2.9774000000000003 
H  -4.3896  3.6976  2.4359 
C  -0.46130000000000004  -2.0987999999999998  2.3566000000000003 
C  0.5052000000000001  -3.1302  2.4342000000000006 
C  0.09430000000000005  -4.4017  2.8358 
H  0.7396999999999998  -5.0984  2.891 
C  -1.2101  -4.6798  3.1531000000000002 
H  -1.4598  -5.5515  3.431 
C  -2.1577  -3.6744  3.0637 
H  -3.0614  -3.8676  3.2829000000000006 
C  -1.8138  -2.3876  2.659 
C  1.9509999999999998  -2.9252  2.0339 
H  2.1223  -1.9407999999999999  1.9838000000000005 
C  2.9459  -3.5341  3.0436000000000005 
H  2.7337999999999996  -3.2126  3.9448 
H  3.8571  -3.2643999999999997  2.8077000000000005 
H  2.8782999999999994  -4.5117  3.0191 
C  2.2161  -3.5267  0.6491000000000002 
H  1.6134000000000002  -3.1170999999999998  -0.00649999999999995 
H  2.0586  -4.4925999999999995  0.677 
H  3.1455  -3.3545  0.3900000000000001 
C  -2.926  -1.3576000000000001  2.5036000000000005 
H  -2.4935  -0.47250000000000014  2.3371000000000004 
C  -3.8213999999999997  -1.6676  1.2972000000000001 
H  -4.5026  -0.9691999999999998  1.2077 
H  -4.2567  -2.5358  1.4284 
H  -3.2741  -1.6952  0.4841000000000002 
C  -3.7925  -1.2178999999999998  3.755 
H  -4.3949  -0.4533999999999998  3.6517 
H  -3.2169  -1.0783999999999998  4.5357 
H  -4.3197  -2.0336  3.88 
