38
unq_CSD-KECMEL-02-a
N  0.09099999999999997  -1.5551  1.2943000000000002 
N  -0.09109999999999996  -1.5551  -1.2943 
N  0.23199999999999998  -1.6972999999999998  2.6437000000000004 
N  0.24839999999999995  -0.6455  3.3224000000000005 
C  -0.07919999999999994  0.028000000000000025  5.589700000000001 
H  -0.5359  0.7726  5.271700000000001 
C  0.06499999999999995  -0.15759999999999996  6.944700000000001 
H  -0.3118000000000001  0.45330000000000004  7.5357 
C  0.03869999999999996  -2.8322000000000003  0.6831 
C  0.45740000000000003  -0.8949  4.688599999999999 
C  1.1907  -1.931  5.179600000000001 
H  1.6096  -2.5238  4.598700000000001 
C  0.08549999999999991  -4.043  1.3831000000000002 
H  0.14219999999999988  -4.0466  2.3112 
C  1.3091  -2.0985  6.541400000000001 
H  1.7817  -2.8274  6.871700000000001 
C  0.7452  -1.2118  7.418900000000001 
H  0.8337  -1.3395  8.335700000000001 
C  0.047499999999999876  -5.2044999999999995  0.6989000000000001 
H  0.08349999999999991  -6.011699999999999  1.1583999999999999 
N  -0.23199999999999998  -1.6972999999999998  -2.6437 
N  -0.24839999999999995  -0.6455  -3.3224 
C  0.07919999999999994  0.028000000000000025  -5.589700000000001 
H  0.5359  0.7726  -5.2717 
C  -0.06499999999999995  -0.15759999999999996  -6.944699999999999 
H  0.3118000000000001  0.45330000000000004  -7.5357 
C  -0.03869999999999996  -2.8322000000000003  -0.6831 
C  -0.45740000000000003  -0.8949  -4.6886 
C  -1.1906999999999999  -1.931  -5.1796 
H  -1.6096000000000001  -2.5238  -4.5987 
C  -0.08549999999999991  -4.043  -1.3831 
H  -0.1422000000000001  -4.0466  -2.3112 
C  -1.3091000000000002  -2.0985  -6.541399999999999 
H  -1.7817  -2.8274  -6.871700000000001 
C  -0.7451999999999999  -1.2118  -7.418900000000001 
H  -0.8337000000000001  -1.3395  -8.3357 
C  -0.0475000000000001  -5.2044999999999995  -0.6989000000000001 
H  -0.08360000000000012  -6.011699999999999  -1.1583999999999999 
