19
unq_CSD-CUPCEV10-02-a
N  0.6787999999999998  1.2931000000000001  1.4782000000000002 
N  0.6787999999999998  1.2931000000000001  -1.4781999999999997 
C  1.1313000000000004  3.2389  0.0 
C  0.4855999999999998  2.7565999999999997  1.2713999999999999 
C  0.20420000000000016  0.8920999999999999  2.8304 
H  1.1174999999999997  4.1979  0.0 
H  2.0404999999999998  2.9314999999999998  0.0 
H  -0.45530000000000026  2.9392999999999994  1.2289000000000003 
H  0.8704999999999998  3.2288999999999994  2.0139000000000005 
H  1.6280000000000001  1.1706  1.3974000000000002 
H  0.7587999999999999  1.3154000000000001  3.4908 
H  -0.7036999999999995  1.184  2.9414 
C  0.4855999999999998  2.7565999999999997  -1.2713999999999999 
C  0.20420000000000016  0.8920999999999999  -2.8304 
H  1.6280000000000001  1.1706  -1.3973999999999998 
H  -0.45530000000000026  2.9392999999999994  -1.2288999999999999 
H  0.8704999999999998  3.2288999999999994  -2.0138999999999996 
H  0.7587999999999999  1.3154000000000001  -3.4907999999999997 
H  -0.7036999999999995  1.184  -2.9414 
