66
unq_CSD-YEZMIB-02-c
N  1.2539999999999996  -0.13290000000000113  -1.7439 
N  1.8843999999999994  0.7948000000000004  0.6307000000000009 
C  2.6500000000000004  0.06729999999999947  -1.479099999999999 
C  3.6524  -0.29579999999999984  -2.5671999999999997 
H  4.481999999999999  -0.5603999999999996  -2.139999999999999 
H  3.3133  -1.0683000000000007  -3.046999999999999 
C  3.9620999999999995  0.7970000000000006  -3.5786999999999995 
C  4.583400000000001  1.9764  -3.1906999999999988 
H  4.796800000000001  2.1058000000000003  -2.2932999999999986 
C  4.891200000000001  2.9598000000000013  -4.102599999999999 
H  5.315100000000001  3.7394  -3.823299999999999 
C  4.5732  2.7909000000000006  -5.419499999999999 
H  4.790099999999999  3.4483999999999995  -6.039299999999999 
C  3.9321  1.649099999999999  -5.826299999999999 
H  3.6892999999999994  1.5459999999999994  -6.718799999999999 
C  3.6453000000000007  0.6493000000000002  -4.911199999999999 
H  3.2318  -0.13140000000000107  -5.199999999999999 
C  0.8569999999999993  -0.20790000000000042  -3.1121999999999987 
C  0.5634999999999994  0.9775999999999989  -3.813299999999999 
C  0.12090000000000067  0.907  -5.114499999999999 
H  -0.0821000000000005  1.6926000000000005  -5.569599999999999 
C  -0.028100000000000236  -0.3141999999999996  -5.7600999999999996 
H  -0.33389999999999986  -0.3506  -6.638099999999999 
C  0.28059999999999974  -1.4588999999999999  -5.088699999999999 
H  0.19059999999999988  -2.2760999999999996  -5.522799999999999 
C  0.7240000000000002  -1.4375999999999998  -3.7845999999999993 
C  0.7737999999999996  2.3186999999999998  -3.1647999999999987 
H  1.7126000000000001  2.5128000000000004  -3.1309999999999993 
H  0.4169999999999998  2.302199999999999  -2.2738999999999994 
H  0.3240999999999996  2.9949000000000012  -3.676499999999999 
C  1.0389999999999997  -2.7393  -3.114799999999999 
H  0.6075999999999997  -3.4555000000000007  -3.586099999999999 
H  0.7233  -2.7169000000000008  -2.207799999999999 
H  1.9895999999999994  -2.8785000000000007  -3.119699999999999 
C  2.9696999999999996  0.5345999999999993  -0.257299999999999 
C  4.387499999999999  0.7308000000000003  0.23690000000000033 
H  4.488299999999999  1.6593  0.5021000000000004 
H  4.989699999999999  0.5753000000000004  -0.5065999999999988 
C  4.8332000000000015  -0.14080000000000048  1.394400000000001 
C  5.0779  0.4084000000000003  2.6470000000000002 
H  4.968800000000002  1.3225999999999996  2.7826000000000004 
C  5.483699999999999  -0.4009999999999998  3.6913 
H  5.632200000000001  -0.030100000000000904  4.532100000000002 
C  5.668500000000002  -1.7500999999999998  3.4944000000000006 
H  5.939599999999999  -2.2919  4.1997 
C  5.4527  -2.2859  2.267800000000001 
H  5.580200000000001  -3.1981  2.133800000000001 
C  5.047699999999999  -1.4929000000000006  1.2154000000000007 
H  4.917300000000001  -1.8727  0.37620000000000076 
C  2.1163000000000007  1.7361000000000004  1.6778000000000013 
C  1.9293999999999993  1.3351000000000006  3.0174000000000003 
C  2.1118000000000006  2.2689000000000004  4.027000000000001 
H  1.9620999999999995  2.014899999999999  4.908200000000001 
C  2.505700000000001  3.5569999999999986  3.765500000000001 
H  2.6335999999999995  4.1617999999999995  4.4595 
C  2.7074  3.9345999999999997  2.4711000000000016 
H  2.9847  4.8048  2.296800000000001 
C  2.5112000000000005  3.066600000000001  1.404300000000001 
C  1.6304999999999996  -0.09149999999999991  3.3911000000000016 
H  1.854800000000001  -0.23419999999999952  4.3126000000000015 
H  2.149700000000001  -0.682500000000001  2.8391 
H  0.6965000000000003  -0.26750000000000007  3.257100000000001 
C  2.748800000000001  3.5654000000000003  0.003400000000000958 
H  2.418100000000001  4.4632000000000005  -0.07569999999999943 
H  2.2904  2.9999000000000002  -0.6212 
H  3.6903000000000006  3.554500000000001  -0.18549999999999933 
