40
unq_CSD-UKARII-02-a
N  -0.3492999999999995  -1.3154000000000003  1.3496000000000006 
N  0.5182000000000002  1.1452999999999989  1.4611999999999998 
C  0.11990000000000034  -3.331900000000001  0.0495000000000001 
H  1.0335  -3.2112000000000016  0.23629999999999995 
C  -0.2683  -4.3859  -0.7263999999999999 
H  0.3719999999999999  -4.9861  -1.0638000000000005 
C  -1.6019999999999999  -4.5638000000000005  -1.0132000000000003 
H  -1.8780999999999999  -5.274500000000001  -1.5633 
C  -2.5286999999999997  -3.694300000000001  -0.48770000000000024 
H  -3.4425  -3.831600000000001  -0.6629000000000005 
C  -2.143  -2.6294000000000004  0.2881999999999998 
H  -2.7876  -2.0348000000000006  0.6268999999999991 
C  -0.8029999999999999  -2.4327000000000005  0.5698000000000008 
C  -0.3057999999999996  -1.3279000000000014  2.7936999999999994 
C  -0.7205999999999997  -2.4598000000000013  3.438599999999999 
H  -1.0467  -3.1930000000000014  2.9481 
C  -0.6538999999999997  -2.5167  4.819100000000001 
H  -0.9739  -3.2736  5.2745 
C  -0.13149999999999995  -1.4867000000000008  5.513299999999999 
H  -0.0699999999999994  -1.5512000000000015  6.450099999999999 
C  0.3205  -0.3287000000000013  4.884 
C  0.20870000000000033  -0.23330000000000162  3.4853000000000005 
C  0.6135000000000002  1.0068000000000001  2.8923000000000005 
C  1.0891000000000002  2.0229  3.6332000000000004 
H  1.3470000000000004  2.8216  3.2102000000000004 
C  1.2063000000000006  1.9126999999999992  5.007199999999999 
H  1.5445000000000002  2.6275999999999993  5.5146 
C  0.8218000000000005  0.7459999999999987  5.622299999999999 
H  0.8989000000000003  0.6692  6.555199999999999 
C  2.4909  2.457699999999999  0.7669999999999995 
H  3.0359  2.0321999999999996  1.4040999999999997 
C  3.0406000000000004  3.3283999999999985  -0.1321999999999992 
H  3.9715  3.4619999999999997  -0.1321999999999992 
C  2.2706  4.0062  -1.0274999999999999 
H  2.6675000000000004  4.630399999999998  -1.6075 
C  0.9367999999999999  3.7868999999999993  -1.0846 
H  0.4131999999999998  4.225  -1.7306999999999997 
C  0.33809999999999985  2.8969999999999985  -0.17110000000000092 
H  -0.5932999999999997  2.772499999999999  -0.17629999999999946 
C  1.1322  2.2010999999999985  0.7384000000000004 
