42
unq_CSD-HEZREL-02-b
N  1.7162000000000006  -0.6879  -0.5213000000000001 
N  -0.4344000000000001  -1.8058  -0.4554999999999998 
N  1.7593000000000005  -2.0026  -0.7748999999999997 
N  0.6034000000000006  -2.6235  -0.6345000000000001 
N  6.2775  2.2596999999999996  -1.9844 
N  -5.5812  -4.092  -0.3059000000000003 
C  2.8993  -0.000500000000000167  -0.8720999999999997 
C  3.0313  1.3308  -0.48109999999999964 
H  2.3423999999999996  1.7361000000000004  0.03169999999999984 
C  4.1454  2.0717999999999996  -0.8260000000000005 
H  4.2044999999999995  2.9795  -0.5539000000000005 
C  5.1905  1.5027  -1.5741 
C  5.0692  0.15359999999999996  -1.9279000000000002 
H  5.775600000000001  -0.26659999999999995  -2.4022 
C  3.9407999999999994  -0.5815000000000001  -1.6006 
H  3.875400000000001  -1.4892  -1.8729 
C  6.4053  3.6323999999999996  -1.5436999999999999 
H  6.489700000000001  3.6555  -0.5663999999999998 
H  5.610200000000001  4.139  -1.8146 
H  7.2014  4.0342  -1.9479000000000002 
C  7.477600000000001  1.5894000000000004  -2.471 
H  7.2637  1.0883000000000003  -3.2858 
H  7.808400000000001  0.9740000000000002  -1.7854 
H  8.1661  2.2571000000000003  -2.6710000000000003 
C  -1.6945999999999994  -2.4449  -0.38009999999999966 
C  -2.8148999999999997  -1.6477  -0.6238999999999999 
H  -2.7024  -0.7242000000000002  -0.8143000000000002 
C  -4.0823  -2.1878  -0.5922000000000001 
H  -4.8282  -1.6298  -0.7767999999999997 
C  -4.3008  -3.5427  -0.29440000000000044 
C  -3.1567  -4.3245000000000005  -0.03390000000000004 
H  -3.2657  -5.2437000000000005  0.17969999999999953 
C  -1.8808999999999996  -3.7931  -0.08060000000000045 
H  -1.1300999999999997  -4.3488  0.09210000000000029 
C  -6.699999999999999  -3.2372  -0.0682999999999998 
H  -6.6865  -2.4971  -0.7122000000000002 
H  -6.6501  -2.8799  0.8422999999999998 
H  -7.5293  -3.7475  -0.1767000000000003 
C  -5.7642  -5.4112  0.22970000000000024 
H  -5.559  -5.4053  1.1882000000000001 
H  -5.1636  -6.0365  -0.22879999999999967 
H  -6.6929  -5.691800000000001  0.09630000000000027 
