52
unq_CSD-DEQJAN-02-b
N  -0.4793000000000003  1.7533999999999996  -1.2736 
N  1.7252  1.3851  0.24880000000000002 
C  0.48680000000000057  3.6214  -2.4999000000000002 
H  -0.26449999999999996  3.6615999999999995  -3.0774000000000004 
H  1.2045000000000003  4.232899999999999  -2.6154 
C  0.5365000000000002  2.6962999999999995  -1.5167000000000002 
C  1.8044000000000002  2.4976999999999996  -0.6825 
H  1.8021000000000003  3.2955  -0.07800000000000007 
C  3.0724  2.6516999999999995  -1.4266 
H  3.8277  2.6058999999999997  -0.8012 
H  3.0792  3.5186999999999995  -1.8833000000000002 
H  3.154  1.9329999999999994  -2.0876 
C  -1.7647999999999997  2.0579999999999994  -1.8264 
C  -2.2054  1.451  -3.0170000000000003 
C  -3.5322  1.6127999999999996  -3.4145000000000003 
H  -3.8335  1.1731000000000003  -4.2021999999999995 
C  -4.4315  2.3928  -2.7007000000000003 
C  -3.9551  3.0657  -1.5926 
H  -4.5461  3.6336999999999997  -1.1139000000000001 
C  -2.6357  2.9439999999999995  -1.1484 
C  -1.2406999999999995  0.7066999999999997  -3.9107000000000003 
H  -0.7527999999999997  1.3460999999999994  -4.4705 
H  -1.7399999999999998  0.08509999999999973  -4.4829 
H  -0.6060999999999996  0.2044999999999999  -3.3581000000000003 
C  -5.8706  2.5501  -3.1467 
H  -6.4171  2.8447  -2.3897 
H  -6.205  1.6908999999999996  -3.479 
H  -5.9197  3.2174  -3.8628 
C  -2.1649  3.8122000000000003  -0.008700000000000041 
H  -1.9762999999999997  4.713900000000001  -0.34090000000000004 
H  -1.3483999999999998  3.4294  0.3786999999999999 
H  -2.8644  3.8568000000000002  0.6771999999999999 
C  2.695500000000001  1.4632  1.2965999999999998 
C  2.5932999999999993  2.4597  2.3068 
C  3.5298999999999996  2.4876  3.3428999999999998 
H  3.4518000000000004  3.1604999999999994  4.008900000000001 
C  4.5596  1.5758999999999994  3.4376 
C  4.641299999999999  0.5972999999999997  2.4547 
H  5.3337  -0.049900000000000055  2.5092 
C  3.7385  0.5336999999999996  1.3881999999999999 
C  1.4512  3.4339  2.3404 
H  1.1904000000000003  3.5990999999999995  3.2715 
H  0.6894999999999998  3.0623  1.8481999999999998 
H  1.7293000000000003  4.2775  1.9245999999999999 
C  5.5724  1.6541000000000001  4.5651 
H  6.095000000000001  2.4786999999999995  4.4762 
H  6.170999999999999  0.8806999999999996  4.5189 
H  5.1045  1.6541000000000001  5.4251000000000005 
C  3.9129000000000005  -0.5387000000000004  0.3396 
H  3.1707  -1.1748000000000003  0.39469999999999994 
H  4.756  -1.0118  0.49240000000000006 
H  3.9244000000000003  -0.1280000000000001  -0.5506 
