140
unq_CSD-JATTAD-02-a
N  2.0572  0.31489999999999974  0.7697000000000003 
N  0.0011999999999998678  2.2941000000000003  -0.1443999999999992 
C  -0.9880000000000004  4.564399999999999  0.005599999999999383 
C  -0.8952000000000004  3.297599999999999  -0.6035000000000004 
C  2.5031  2.4467  3.6966 
C  -2.1741  1.6343999999999994  -3.7463999999999995 
C  -1.8135000000000003  1.5951000000000004  -2.2645999999999997 
H  -0.8805000000000005  1.2409999999999997  -2.2067999999999994 
C  4.092499999999999  -3.0774  -0.3117000000000001 
C  -2.8502  5.1614  -1.4491999999999994 
C  1.8773  3.6769  3.907400000000001 
H  2.034  4.392899999999999  3.3032000000000004 
C  -1.7884000000000002  2.9895999999999994  -1.6552000000000007 
C  2.258  1.3066999999999993  -0.2193000000000005 
C  3.2025999999999994  -0.09060000000000024  1.5242000000000004 
C  4.8489  -4.2046  0.01159999999999961 
H  4.6913  -4.6592  0.8308999999999997 
C  3.6625999999999994  -1.4230999999999998  1.5024999999999995 
C  1.2886999999999995  2.242799999999999  -0.649799999999999 
C  3.4258999999999995  2.2796000000000003  2.4857999999999993 
H  2.876099999999999  2.492799999999999  1.6781000000000006 
C  1.8766999999999996  3.0267999999999997  -1.7691 
C  0.006399999999999295  4.9915  1.0850000000000009 
H  0.4786999999999999  4.162100000000001  1.3838000000000008 
C  3.908199999999999  0.8464999999999989  2.3141 
C  -1.9823000000000004  5.453899999999999  -0.4093 
H  -2.0656000000000003  6.288500000000001  0.03689999999999927 
C  3.0385  -2.5069  0.6334999999999997 
H  2.3518999999999997  -2.0580999999999996  0.06189999999999962 
C  -0.6719000000000004  5.5882000000000005  2.3343000000000007 
C  1.4944999999999995  4.119999999999999  -2.4992 
H  0.6199999999999992  4.478199999999999  -2.4078 
C  -2.7405000000000004  3.9246  -2.056799999999999 
H  -3.3315  3.7056000000000004  -2.7680000000000007 
C  2.2311999999999994  1.4062999999999999  4.581800000000001 
H  2.6294999999999993  0.5554000000000006  4.4404 
C  -0.1327000000000007  6.6745  3.0151000000000003 
H  0.6406000000000001  7.108500000000001  2.6723999999999997 
C  1.0680999999999994  5.909999999999998  0.4986999999999995 
C  3.4560999999999993  1.4549000000000003  -1.0711999999999993 
C  2.3130999999999995  -3.6149000000000004  1.4109999999999996 
C  -3.4530000000000003  1.3676999999999992  -4.2292 
H  -4.138800000000001  1.1046999999999993  -3.6273 
C  3.1879  2.5287000000000006  -1.9560999999999993 
C  -3.3486000000000002  1.0532000000000004  -0.28749999999999964 
H  -3.2175000000000002  1.9332999999999991  0.04610000000000092 
C  -2.6906000000000003  0.6515000000000004  -1.4419000000000004 
C  1.0306999999999995  3.8657000000000004  4.984200000000001 
H  0.6132  4.709  5.1157 
C  -3.9047000000000005  6.141499999999999  -1.9076000000000004 
H  -4.1032  6.770899999999999  -1.1838999999999995 
H  -4.7197000000000005  5.6549  -2.151 
H  -3.5743000000000005  6.6349  -2.6881000000000004 
C  1.7375999999999996  8.019699999999998  -0.4939999999999998 
H  1.5093999999999994  8.896600000000001  -0.7788000000000004 
C  -1.1982000000000004  2.0001999999999995  -4.6601 
H  -0.3156000000000003  2.1746999999999996  -4.3557999999999995 
C  -2.7584000000000004  1.8628  -6.4796 
H  -2.9556000000000004  1.9492999999999991  -7.4045 
C  4.1097  3.064  -2.8452 
C  5.3819  2.4322  -2.885 
H  6.0465  2.741299999999999  -3.4901 
C  5.0466  0.4489000000000001  3.0176999999999996 
H  5.5259  1.0970999999999993  3.5199 
C  2.3747999999999996  5.472799999999999  0.3569999999999993 
H  2.6102999999999996  4.604799999999999  0.6636000000000006 
C  4.5983  3.2631999999999994  2.4863 
C  -1.7994000000000003  4.982200000000001  2.8726000000000003 
H  -2.1946000000000003  4.248899999999999  2.4159000000000006 
C  -3.7365000000000004  1.4824000000000002  -5.5876 
H  -4.6127  1.2965  -5.9025 
C  5.8367  -4.669700000000001  -0.8607999999999993 
H  6.357799999999999  -5.428100000000001  -0.6242999999999999 
C  4.6928  0.878499999999999  -1.1097000000000001 
H  4.9131  0.16360000000000063  -0.5243000000000002 
C  2.0894999999999992  -3.5518  2.7782999999999998 
H  2.3621  -2.7879000000000005  3.2733000000000008 
C  2.4284999999999997  4.7125  -3.3988999999999994 
H  2.1719999999999997  5.4869  -3.8856 
C  -2.8740000000000006  -0.6799999999999997  -1.8737999999999992 
H  -2.4121000000000006  -0.9904000000000011  -2.643699999999999 
C  -0.7207000000000003  7.133999999999999  4.2026 
H  -0.34840000000000027  7.882699999999998  4.6541 
C  4.781599999999999  -1.7735000000000003  2.2540999999999993 
H  5.065099999999999  -2.6802  2.2487999999999992 
C  3.0218999999999996  7.559099999999999  -0.6507000000000005 
H  3.6811999999999996  8.115699999999999  -1.0479000000000003 
C  5.319799999999999  -2.9283  -2.3954000000000004 
H  5.479799999999999  -2.4846000000000004  -3.2192000000000007 
C  5.500299999999999  -0.8640000000000008  3.0074000000000005 
C  0.7719999999999994  7.2036  0.08280000000000065 
H  -0.11120000000000019  7.536599999999998  0.1938999999999993 
C  4.336  -2.4487000000000005  -1.5355000000000008 
H  3.825799999999999  -1.687100000000001  -1.7842000000000002 
C  -3.7136000000000005  -1.535400000000001  -1.1954999999999991 
H  -3.8358000000000003  -2.4226  -1.5124999999999993 
C  6.7186  -1.2812000000000001  3.782400000000001 
H  7.330499999999999  -0.5203000000000007  3.863200000000001 
H  7.168699999999999  -2.0143000000000004  3.3126999999999995 
H  6.4503  -1.5816  4.675699999999999 
C  1.8721999999999994  -4.7410000000000005  0.7219999999999995 
H  2.001099999999999  -4.7908  -0.21860000000000035 
C  5.650399999999999  1.3756000000000004  -2.0518 
H  6.502799999999999  0.9588000000000001  -2.1016999999999992 
C  -4.1989  0.18259999999999899  0.38899999999999935 
H  -4.6591000000000005  0.4815000000000005  1.1646999999999998 
C  3.6831999999999994  4.1998999999999995  -3.5821000000000005 
H  4.2730999999999995  4.6066  -4.2063 
C  5.1073  3.806099999999999  3.6541999999999994 
H  4.7127  3.5876  4.489699999999999 
C  5.2201  3.5601000000000003  1.2810000000000006 
H  4.896099999999999  3.1706000000000003  0.4776000000000007 
C  6.058199999999999  -4.032  -2.0642999999999994 
H  6.7203  -4.3580000000000005  -2.661999999999999 
C  3.355899999999999  6.282099999999998  -0.2270000000000003 
H  4.243499999999999  5.9586999999999986  -0.3340999999999994 
C  -4.3815  -1.1172000000000004  -0.05959999999999965 
H  -4.956300000000001  -1.7118000000000002  0.4076000000000004 
C  -1.4854000000000003  2.116299999999999  -6.0078 
H  -0.8016000000000005  2.3728999999999996  -6.6144 
C  6.3131  4.42  1.2347000000000001 
H  6.7241  4.624499999999999  0.40300000000000047 
C  1.2506999999999993  -5.79  1.3771000000000004 
H  0.9611999999999998  -6.5513  0.8877000000000006 
C  0.7877999999999998  2.831899999999999  5.870799999999999 
H  0.21439999999999948  2.9657999999999998  6.6157 
C  -1.8349000000000002  6.509099999999998  4.7224 
H  -2.2315000000000005  6.825899999999999  5.526 
C  1.4577  -4.6242  3.4281000000000006 
H  1.3085999999999993  -4.5793  4.365600000000001 
C  -2.3666  5.4262999999999995  4.069000000000001 
H  -3.1219  4.9777000000000005  4.431899999999999 
C  1.0532999999999992  -5.7301  2.7391000000000005 
H  0.6378999999999992  -6.4529  3.1948000000000008 
C  1.3899999999999997  1.5946999999999996  5.664300000000001 
H  1.2229999999999999  0.8789999999999996  6.266500000000001 
C  6.7958  4.973599999999999  2.3991000000000007 
H  7.5412  5.5625  2.3719 
C  6.2005  4.6746  3.6061999999999994 
H  6.533899999999999  5.0604  4.407 
