28
unq_CSD-WUBKAH-02-a
N  -0.09519999999999995  2.01  0.5636999999999999 
N  -1.1652999999999998  0.8836999999999993  -1.4954 
C  0.38280000000000003  2.6430999999999987  1.8021000000000003 
H  1.0910000000000002  2.0779000000000014  2.2009 
H  -0.36479999999999996  2.6944  2.4483999999999995 
C  0.9285  4.024099999999999  1.5751999999999997 
H  1.2625000000000002  4.391  2.4311999999999996 
H  1.6894999999999998  3.9791000000000007  0.9427000000000003 
C  -0.13299999999999995  4.9292  1.0199999999999996 
H  -0.7908  5.143800000000001  1.7282000000000002 
H  0.27870000000000006  5.7766  0.7149999999999999 
C  -0.8302999999999999  4.2669000000000015  -0.12980000000000036 
C  -0.7666  2.8889000000000014  -0.30430000000000046 
C  -1.528  5.0085  -1.0829000000000004 
H  -1.5945  5.951199999999998  -0.9771999999999998 
C  -2.1221  4.416099999999998  -2.1683 
H  -2.5877  4.955599999999999  -2.7966 
C  -2.0564999999999998  3.0402000000000005  -2.366 
C  -1.3639999999999999  2.2751  -1.4215 
C  -2.6313  2.3864  -3.5821 
H  -2.5343999999999998  2.988999999999999  -4.3624 
H  -3.5963000000000003  2.211599999999999  -3.4437 
C  -1.9064  1.0789999999999988  -3.8485 
H  -2.3717  0.5859000000000005  -4.5695 
H  -0.9837  1.2705000000000002  -4.1527 
C  -1.862  0.23370000000000068  -2.6109 
H  -2.7877  0.02120000000000033  -2.3325 
H  -1.406  -0.6197999999999997  -2.8206 
