71
unq_CSD-XEPHAC-02-a
N  1.6425  0.6028  0.7728000000000002 
N  -1.2853999999999992  1.1321999999999999  0.8249 
C  2.8112999999999992  -0.2378  0.8292000000000002 
C  -0.8871000000000002  2.2847  1.686 
C  -3.6178  0.2872  0.4283999999999999 
C  3.0594  -1.0131000000000001  1.9634 
C  4.6866  -1.2667000000000002  -0.27079999999999993 
H  5.243  -1.3466  -1.0116999999999998 
C  3.6850000000000005  -0.3194  -0.2803 
C  4.1029  -1.9426  1.9178000000000002 
H  4.2713  -2.4748  2.6606 
C  -4.8571  0.12049999999999994  1.0476999999999999 
H  -5.5466  -0.27690000000000003  0.5670999999999999 
C  1.6672999999999991  1.8093  1.4809 
C  0.5833999999999993  2.5011  1.8399 
H  0.7883999999999993  3.2904999999999998  2.2845 
C  2.2759  -0.857  3.2420000000000004 
H  1.6895000000000007  -0.0817  3.1203999999999996 
C  3.0294000000000008  2.3929  1.7980999999999998 
H  2.9209999999999994  3.2231  2.2693 
H  3.5086999999999993  2.549  0.9811999999999999 
H  3.5229999999999997  1.7772999999999999  2.3453000000000004 
C  -4.1023  1.1422999999999999  3.0653 
H  -4.2694  1.4331999999999998  3.9316 
C  -2.6044  0.8513  1.2054 
C  4.8812000000000015  -2.0898000000000003  0.8026 
H  5.539399999999999  -2.7444  0.7741000000000002 
C  -2.8695000000000004  1.3268  2.4915 
C  4.8773  1.4775  -1.5607 
H  5.047099999999999  1.9316999999999998  -0.7323999999999999 
H  4.775399999999999  2.1215  -2.2637 
H  5.6151  0.8975  -1.764 
C  3.585699999999999  0.6401999999999999  -1.4353 
H  2.8427000000000007  1.254  -1.2587 
C  -5.0948  0.5161  2.3244000000000002 
H  -5.9293000000000005  0.36529999999999996  2.7062000000000004 
C  3.3206000000000007  -0.05159999999999998  -2.7652 
H  2.5188000000000006  -0.5767  -2.7006 
H  4.0611  -0.6228  -2.9818 
H  3.2148000000000003  0.6083000000000001  -3.4547999999999996 
C  3.175699999999999  -0.543  4.4331 
H  2.637600000000001  -0.4383  5.2216000000000005 
H  3.6576000000000004  0.26949999999999996  4.264100000000001 
H  3.7973  -1.2631999999999999  4.5623000000000005 
C  1.3879000000000001  -2.0224  3.5592 
H  0.8093000000000004  -2.1963  2.8145000000000002 
H  0.8589000000000002  -1.8202  4.3344000000000005 
H  1.9259000000000004  -2.7976  3.7340000000000004 
C  -3.4101  0.01759999999999995  -1.0478 
H  -2.469900000000001  -0.2343  -1.1675 
C  -1.4720999999999993  3.5423999999999998  1.0173 
H  -1.2332  4.3176  1.5303 
H  -2.4281000000000006  3.4661  0.9754999999999998 
H  -1.1195000000000004  3.6258  0.1282000000000001 
C  -1.6302000000000003  1.976  3.0349 
C  -1.8718000000000004  3.2213  3.8897999999999997 
H  -2.3744999999999994  3.8635  3.3844999999999996 
H  -1.0281000000000002  3.6026999999999996  4.144399999999999 
H  -2.3628  2.9783  4.6782 
C  -0.8439999999999994  0.9578  3.8689000000000004 
H  -0.6859999999999999  0.17020000000000002  3.3446000000000002 
H  -1.3506999999999998  0.7254  4.649699999999999 
H  -0.005599999999999383  1.3409  4.133000000000001 
C  -3.6361  1.2752999999999999  -1.8305 
H  -3.4910999999999994  1.1032  -2.7633 
H  -3.0236  1.9529999999999998  -1.5303 
H  -4.5372  1.5769000000000002  -1.6956 
C  -4.2551  -1.1266  -1.593 
H  -4.0644  -1.249  -2.5258 
H  -5.1849  -0.9173  -1.4828 
H  -4.0487  -1.932  -1.1162 
