40
unq_CSD-XOXCET-02-a
N  0.13959999999999972  -0.6588000000000003  2.0302 
N  1.8480999999999996  0.6265999999999998  0.9227999999999996 
C  -0.038000000000000256  -3.0705  3.7661 
H  0.31709999999999994  -3.6649000000000003  3.0733999999999995 
H  -0.6487000000000007  -3.5724  4.3454999999999995 
H  0.7012  -2.715  4.3003 
C  -2.2357000000000005  -2.29  1.7477999999999998 
H  -2.6865  -1.5299999999999998  1.3259999999999996 
H  -2.8948  -2.84  2.2198 
H  -1.7941000000000003  -2.83  1.0598999999999998 
C  -1.7592000000000003  -0.7012999999999998  4.3514 
H  -1.0660000000000003  -0.26259999999999994  4.8862000000000005 
H  -2.273  -1.3125  4.919599999999999 
H  -2.3595  -0.025100000000000122  3.9756 
C  4.0283999999999995  0.5766  -0.11859999999999982 
C  4.3566  -0.6618000000000004  0.42989999999999995 
H  3.895199999999999  -0.9826000000000001  1.1955 
C  5.3606  -1.4235000000000002  -0.14810000000000034 
H  5.5739  -2.2725  0.2195999999999998 
C  6.055  -0.9647999999999999  -1.2489 
H  6.738999999999999  -1.495  -1.6383 
C  5.7471  0.2724000000000002  -1.7802000000000002 
H  6.2301  0.5974000000000004  -2.5304 
C  4.7394  1.0434  -1.2252999999999998 
H  4.5314  1.8922999999999996  -1.5981000000000005 
C  3.1000999999999994  2.6799999999999997  0.8075000000000001 
C  4.353999999999999  3.241999999999999  1.0041000000000002 
H  5.1347000000000005  2.7148000000000003  0.8791000000000002 
C  4.4695  4.5647  1.3812999999999995 
H  5.3345  4.9422  1.4934000000000003 
C  3.3595000000000006  5.3489  1.5983 
H  3.4511000000000003  6.257199999999999  1.8650000000000002 
C  2.1098999999999997  4.7857  1.4188999999999998 
H  1.3321999999999994  5.312200000000001  1.5686999999999998 
C  1.9780999999999995  3.4704999999999995  1.0260999999999996 
H  1.112  3.0998  0.9041999999999994 
N  1.2093999999999996  -0.29380000000000006  2.8505000000000003 
N  2.1036  0.3799000000000001  2.2717 
N  2.9406  1.3418999999999999  0.3769999999999998 
Si  -0.9600000000000004  -1.6635  2.9648000000000003 
