43
unq_CSD-NOLNOR-02-a
N  -0.3199000000000005  -1.1895999999999998  -1.5443 
N  0.3886000000000003  -1.8188999999999997  0.8226 
C  -0.04070000000000018  -2.5193  -1.3639000000000001 
C  -0.11319999999999997  -3.4823999999999997  -2.38 
C  0.05140000000000011  -4.8025  -2.0596 
C  0.3045  -5.1805  -0.7202 
C  0.41329999999999956  -4.2538  0.2770999999999999 
C  0.2916999999999996  -2.8646  -0.030299999999999994 
C  -0.3745000000000003  -0.6887999999999999  -2.8953 
C  -1.5758  -0.6868999999999998  -3.6054 
C  -1.5842  -0.17459999999999987  -4.8884 
C  -0.44330000000000025  0.30120000000000013  -5.4874 
C  0.7406999999999995  0.28400000000000025  -4.7701 
C  0.7988  -0.20529999999999982  -3.4899 
C  -2.8461  -1.2375999999999998  -2.9616 
C  -0.4765999999999999  0.8557000000000001  -6.924899999999999 
C  2.1143  -0.16500000000000004  -2.7596 
C  0.8102999999999998  -2.0492  2.1678 
C  1.9931999999999999  -2.7495  2.4579 
C  2.4044999999999996  -2.9240999999999997  3.7453 
C  1.6669999999999998  -2.4272  4.777200000000001 
C  0.4980000000000002  -1.7536999999999998  4.536199999999999 
C  0.051599999999999646  -1.533  3.2373 
H  -0.27000000000000046  -3.2272999999999996  -3.2604 
H  -0.0034000000000000696  -5.452999999999999  -2.7235 
H  0.39919999999999956  -6.0823  -0.5138000000000003 
H  0.5667999999999997  -4.526199999999999  1.1517 
H  -2.3847  -0.15349999999999975  -5.3604 
H  1.5136000000000003  0.6101000000000001  -5.167 
H  -2.9413  -0.8729999999999998  -2.0784000000000002 
H  -2.786  -2.195  -2.9068 
H  -3.6052  -0.9938999999999998  -3.4928 
H  -1.3806000000000003  1.0668000000000002  -7.165900000000001 
H  -0.13119999999999976  0.19569999999999999  -7.5296 
H  0.062100000000000044  1.6501000000000006  -6.974 
H  2.1826999999999996  0.6562000000000001  -2.2674 
H  2.8334  -0.21869999999999967  -3.3932 
H  2.1666  -0.9056  -2.152 
H  2.5042  -3.0968  1.7621999999999995 
H  3.1925999999999997  -3.3846  3.9213999999999998 
H  1.9600999999999997  -2.5461  5.6518999999999995 
H  -0.004100000000000215  -1.4408999999999998  5.2521 
H  -0.7294  -1.0534  3.0784999999999996 
