36
unq_CSD-MANKOD-02-a
N  1.8733000000000004  -0.10749999999999993  1.2235 
N  -0.4821  1.6189  0.19659999999999966 
C  2.0635000000000003  5.3106  0.5446 
H  1.6021999999999998  6.124899999999999  0.2504999999999997 
H  2.9692  5.295699999999999  0.17239999999999966 
H  2.1127000000000002  5.2982000000000005  1.5235999999999996 
C  3.4702  -1.7431  1.9313999999999996 
H  3.7537000000000003  -2.6499  1.9434999999999998 
C  1.1180000000000003  4.1834999999999996  -1.4764000000000002 
H  0.5970000000000004  3.4218  -1.8055000000000003 
H  2.0012999999999996  4.182899999999999  -1.9009000000000003 
H  0.6516000000000002  5.016699999999999  -1.6942000000000002 
C  4.1975  -0.7698  2.5742999999999996 
H  4.9956  -0.9907000000000004  3.0403999999999995 
C  -2.0001  5.2055  1.6890999999999994 
H  -2.3476  6.011  2.0535 
C  -2.7960000000000003  4.079199999999999  1.6256999999999997 
H  -3.6943  4.1049  1.9355999999999995 
C  2.3324999999999996  -1.376  1.2758999999999996 
H  1.8346999999999998  -2.0508  0.8307999999999995 
C  -0.7049000000000003  5.1636999999999995  1.2239 
H  -0.17680000000000007  5.951300000000001  1.2850999999999995 
C  3.7482000000000006  0.5353000000000003  2.5311999999999997 
H  4.240500000000001  1.2173999999999996  2.9728999999999997 
C  -2.269  2.9126000000000003  1.1044999999999994 
H  -2.8117  2.1338999999999997  1.0638999999999998 
C  1.2838000000000003  4.0722  0.05259999999999998 
C  2.1550000000000002  2.8229999999999995  0.3392999999999997 
H  1.8864  2.1058000000000003  -0.2873000000000001 
H  3.0983  3.0496000000000008  0.14319999999999977 
C  2.0791000000000004  2.2686  1.7692 
H  2.6189999999999998  2.841  2.3700999999999994 
H  1.1397000000000004  2.2988999999999997  2.0813 
C  -0.12900000000000045  4.0162  0.6654 
C  2.5801999999999996  0.8598999999999997  1.8455999999999997 
C  -0.9458000000000002  2.8533999999999997  0.6330999999999998 
