37
unq_CSD-BUCZAA-02-a
N  -0.5758000000000001  -1.3272  1.119 
N  -1.3272  -0.5758000000000001  -1.119 
Si  -1.8413  -1.8413  0.0 
C  -0.18489999999999984  -1.8439999999999999  2.4443 
C  1.0604000000000005  -1.1376999999999997  2.8798 
C  -1.2572999999999999  -1.7723  3.4008 
C  0.1867000000000001  -3.3082  2.3443 
C  -1.593  -3.5500999999999996  -0.6481 
H  1.4742000000000006  -1.4871999999999996  3.7217 
H  1.7777000000000003  -0.7789999999999999  2.2818 
H  0.41659999999999986  -0.40200000000000014  3.1049 
H  -1.1284999999999998  -2.2506  4.2885 
H  -1.5332  -0.8065999999999995  3.6467 
H  -2.1677999999999997  -2.2045999999999997  2.9611 
H  0.9131999999999998  -2.8758999999999997  1.8087 
H  0.5821000000000005  -3.7588999999999997  3.1424 
H  -0.2824  -3.9795999999999996  1.7796 
H  -1.8697999999999997  -4.251799999999999  0.1417 
H  -2.1816  -3.7505999999999995  -1.4607 
H  -0.6391999999999998  -3.7394999999999996  -0.9252 
C  -3.5500999999999996  -1.593  0.6481 
C  -1.8439999999999999  -0.18489999999999984  -2.4443 
H  -4.251799999999999  -1.8697999999999997  -0.1417 
H  -3.7505999999999995  -2.1816  1.4607 
H  -3.7394999999999996  -0.6391999999999998  0.9252 
C  -1.1376999999999997  1.0604000000000005  -2.8798 
C  -1.7723  -1.2572999999999999  -3.4008 
C  -3.3082  0.1867000000000001  -2.3443 
H  -1.4871999999999996  1.4742000000000006  -3.7217 
H  -0.7789999999999999  1.7777000000000003  -2.2818 
H  -0.40200000000000014  0.41659999999999986  -3.1049 
H  -2.2506  -1.1284999999999998  -4.2885 
H  -0.8065999999999995  -1.5332  -3.6467 
H  -2.2045999999999997  -2.1677999999999997  -2.9611 
H  -2.8758999999999997  0.9131999999999998  -1.8087 
H  -3.7588999999999997  0.5821000000000005  -3.1424 
H  -3.9795999999999996  -0.2824  -1.7796 
