34
unq_CSD-OZIHIQ-02-b
N  -1.1783  -0.5429000000000013  -1.6852 
N  1.2806  -0.8687000000000005  -0.8776999999999999 
N  0.47209999999999996  -1.8331000000000017  -2.8619 
N  -1.6951  -2.0310000000000006  -3.4651 
N  2.7333  -1.6127000000000002  -2.5309999999999997 
C  -2.3122  0.27639999999999887  -1.9536999999999995 
C  -3.2351  0.534399999999998  -0.9477000000000002 
H  -3.1542  0.09609999999999985  -0.10949999999999971 
C  -4.2733  1.4300999999999995  -1.1605999999999996 
H  -4.8976  1.600999999999999  -0.4663000000000004 
C  -4.4058  2.0730000000000004  -2.3680000000000003 
H  -5.1174  2.6889000000000003  -2.5042 
C  -3.5145  1.825599999999998  -3.3664 
H  -3.6079  2.2718999999999987  -4.1988 
C  -2.4692  0.9262999999999977  -3.1813 
H  -1.8620999999999999  0.7539999999999978  -3.89 
C  -0.7857  -1.4435000000000002  -2.6337 
C  1.4789  -1.4075000000000006  -2.0803000000000003 
C  -3.1219  -2.1571000000000016  -3.1784 
H  -3.2779  -2.0046000000000017  -2.2222 
H  -3.4254  -3.0588000000000015  -3.4181 
H  -3.62  -1.4943000000000008  -3.701 
C  -1.2079  -2.8497000000000003  -4.5766 
H  -0.5125  -2.359400000000001  -5.0638 
H  -1.9506999999999999  -3.053600000000001  -5.1827 
H  -0.8336999999999999  -3.685600000000001  -4.2265999999999995 
C  2.998  -2.168800000000001  -3.8468 
H  2.1502999999999997  -2.3931000000000004  -4.2841000000000005 
H  3.543  -2.9785000000000004  -3.7557 
H  3.4799000000000007  -1.5098000000000003  -4.3887 
C  3.8931000000000004  -1.2472000000000012  -1.7331000000000003 
H  3.6009  -0.9529000000000014  -0.8460000000000001 
H  4.3782000000000005  -0.5178000000000011  -2.1761999999999997 
H  4.4843  -2.0227000000000004  -1.6420000000000003 
