106

Pd  0.0  0.0  0.0 
N  0.32092710749616904  2.0259138298284642  7.327471962526033e-15 
N  1.6549734981976338  2.2504702101457346  0.13776624955046435 
N  1.819080868829764  -0.018293942733318302  -4.6629367034256575e-15 
N  1.6274061364047552  -2.3049735719165896  0.06809581799241538 
N  0.25999202367406693  -2.007619887095146  -2.7200464103316335e-15 
C  -0.2196292530817605  3.24010740569814  -0.03691871281004955 
H  -1.1490952568407058  3.408872775377022  -0.1480721556425877 
C  0.755210835981764  4.24272442126736  0.10967764064286545 
H  0.6228178278086929  5.183520788762396  0.11169662430526239 
C  1.9242201938625128  3.575558714452902  0.24698878672360758 
H  2.7784073578914725  3.9636593387248817  0.39285953172706234 
C  2.48356041223911  1.1064421179297381  0.21672060408427374 
C  3.835738511488624  1.162881319918968  0.46568741791453205 
H  4.279418185825608  1.9937330883802307  0.5888241525838414 
C  4.536686719495763  -0.0537238065537613  0.5290140784285322 
C  3.8301780903488565  -1.2601455868019054  0.37321579511366754 
H  4.268930561893673  -2.1023970533947836  0.42509330214185537 
C  2.464218583897817  -1.1680178588337318  0.13679490247629167 
C  1.8143103736309445  -3.5811173323530343  0.30952839410016963 
H  2.6542065479146597  -4.011880696618906  0.42296141587922353 
C  0.5777581361274802  -4.185769668721123  0.3684942829664424 
H  0.3888471119952426  -5.107547668322259  0.5018410280059635 
C  -0.3101942750220812  -3.1761747278092756  0.19542013464011665 
H  -1.2514047747316803  -3.3001616941776604  0.21430498060643044 
C  5.9487527241566065  -0.04218569557965868  0.8054963572029801 
C  7.0853440944249195  0.025234313441273137  1.0035866129330844 
C  8.539163597198675  0.09997391595690619  1.2664469659163307 
H  9.007478745233929  -0.5273074136089817  0.660219908042162 
H  8.713286910178585  -0.19268449761206607  2.19607390444823 
C  9.122469916238789  1.514403860255641  1.0712470662264222 
H  8.923648429018654  1.8268956038354494  0.15310094691096887 
H  8.6885050484998  2.137379219318222  1.706963390988601 
C  10.613684063382141  1.531928714616107  1.2935309091821614 
H  10.791805735353053  1.2050643243470076  2.210078693178335 
H  11.024980345963625  0.8836786076480947  0.6653227376732156 
C  11.299114033422804  2.824609744018332  1.1268127866109738 
H  10.94231533244742  3.4545805480530585  1.802634303763336 
H  11.07034783483356  3.184846481693339  0.23264039875039055 
C  12.788546775225797  2.7911982794249632  1.254038026555484 
H  13.010599055642473  2.3957399254691008  2.1337045173622395 
H  13.140316398138232  2.1787966473041793  0.5601886816888584 
C  13.513015586601203  4.080919295125319  1.136418755153397 
H  13.25174689614416  4.493749707963202  0.2741578598189496 
H  13.182965390211624  4.676084186473605  1.8549059018509464 
C  14.994403047640034  4.079959826484913  1.198379062583618 
H  15.248393429728893  3.6165473806238575  2.035912560915137 
H  15.316634521338953  3.515360204494672  0.45098202338269644 
C  15.743529073392516  5.306404822363234  1.1539760263663923 
H  15.406315193387488  5.804692496917996  0.36772193733488634 
H  15.470046918139696  5.8236440211582305  1.9504883815676037 
C  17.169895214722803  5.392169817500271  1.0947671885489692 
H  17.50769311673368  4.85557523682456  1.8546954373899411 
H  17.4388494822815  4.910423766218958  0.27203128071655447 
C  17.923369286287457  6.606377628319517  1.1039555303644546 
H  17.55999267868445  7.155694661358526  0.36549910087104676 
H  17.674075564501063  7.071323186098001  1.9417495376120235 
C  19.3274535461186  6.7067957892572725  1.0067421863816464 
H  19.591955413792224  6.2176754094771045  0.18836235642438937 
H  19.700980203998835  6.2026313367139725  1.7726044720730996 
C  20.02391580713478  7.991138722108023  0.9715947851041036 
H  20.990724794522244  7.836152241131429  0.9199839081369681 
H  19.81739714759624  8.498922371773887  1.7846426424866908 
H  19.73299788993918  8.498954322874068  0.18582282640794845 
N  -3.0408041919836855  -0.20280599725922413  -3.9802703967018913 
O  -1.9300002231182534  3.757411048965764e-15  -0.06999977688174752 
O  -0.06999977688174752  0.0  -1.9300002231182525 
C  -2.3355340619094753  -0.08894458221482157  -1.3057125132771827 
C  -1.3282440325826508  -0.0775801289241365  -2.3285267173339093 
C  -1.6986911240353388  -0.1577076346238048  -3.6616472014855197 
C  -0.6907655198594634  -0.24407991360422387  -4.76924605751167 
H  -0.9032799963323004  -1.008586575740702  -5.344876608158893 
H  0.2043432377244644  -0.36026599368485235  -4.388571068981977 
H  -0.716245695585567  0.5801621510377076  -5.299023434831434 
C  -3.9981293737198995  -0.2416507044561811  -3.0233360807028578 
H  -4.910440014099268  -0.3004299530905175  -3.2818553940637227 
C  -3.6806132789818236  -0.19887642785029272  -1.6870193701723288 
H  -4.365242850725869  -0.2429600501712154  -1.0288123178425552 
C  -3.458370673451876  -0.18457249327919684  -5.379961556524994 
C  -3.4581627845607166  1.0188893220005288  -6.071993684352787 
H  -3.185573222501207  1.821649058022142  -5.644178073512386 
C  -3.8622735085119184  1.0299821000609617  -7.401634272279662 
H  -3.86799862840776  1.8506143210202803  -7.88067510657834 
C  -4.260912729027972  -0.14321746368133265  -8.045494595254535 
C  -4.243622745073947  -1.3340726226029145  -7.323815264163014 
H  -4.509510553461414  -2.141586553021983  -7.748675518282027 
C  -3.8424683306556537  -1.3631696803500357  -5.989296546788378 
H  -3.832795236852484  -2.181168627408667  -5.5066822868796255 
C  -4.740616797401229  -0.12359278865663911  -9.478499940295656 
H  -4.820233626300549  -1.0547084124081731  -9.8064408278986 
H  -4.068016911857338  0.33864037816396764  -10.038196307496072 
C  -6.089428036067811  0.5783058364490061  -9.636868916176605 
H  -6.73992409787285  0.17011028215273688  -9.011843402274264 
H  -5.987961154507434  1.5312837515881979  -9.387732758215929 
C  -6.643462577880343  0.49389926684565416  -11.05039784318392 
H  -6.850380214992769  -0.45089736907279615  -11.26053688812568 
H  -5.952345773818531  0.8023169557968317  -11.688939010443665 
C  -7.907003411917709  1.3354843566248622  -11.235824344476118 
H  -8.60521979454843  1.0158847987065889  -10.627239341699525 
H  -8.219017424748573  1.2563457525033754  -12.161245371433498 
H  -7.705755308535404  2.2741802183965456  -11.0379709392041 
Cl  0.010463690040482893  -0.022526794951365142  3.238687291310586 
O  0.15627041224415983  1.349152535178442  3.7071791963152116 
O  -1.2257893933086899  -0.5376089502171415  3.7133209471299202 
O  -8.63763325799128e-17  -3.9318586788915193e-16  1.8300000000000003 
O  1.0590552910240467  -0.7890167900099364  3.748649781913414 
