64

Fe  0.0  0.0  0.0 
Br  -2.3455150599957273  4.018299999999999  -1.1101796829041852 
Br  -7.137923922994577  1.0884999999999996  -1.2713621256517313 
O  -1.2205585244352453  1.3379999999999996  -0.24951343336272902 
N  -1.3186510339934059  -1.3379999999999996  0.23095249630199016 
C  -2.48737239085369  1.2295999999999996  -0.4866184688426827 
C  -3.240992126765293  2.3610999999999995  -0.8661161811474165 
C  -4.596086838871301  2.3270999999999993  -1.082717014992377 
H  -5.055863634710061  3.1009999999999995  -1.318134830818289 
C  -5.270926575522478  1.1258999999999995  -0.9487426523830722 
C  -4.608826016254404  -0.013300000000000057  -0.6036398569482869 
H  -5.074286539474677  -0.8151  -0.5239483183540983 
C  -3.2220005474005995  0.022299999999999934  -0.370026995704683 
C  -2.580818699172609  -1.1726999999999999  0.0756526734557337 
H  -3.1289534262746623  -1.8970999999999996  0.27257098378963185 
C  -0.8711298773791694  -2.5765999999999996  0.8867276592829129 
H  -1.6500850106906304  -3.0873999999999997  1.15774684732635 
H  -0.37481449090526436  -2.3474999999999997  1.6876455559173043 
C  8.873989856328368e-06  -3.4433999999999996  7.01516379289833e-05 
C  -0.8469382989418515  -4.334999999999999  -0.9087354195724306 
H  -1.4835418673833156  -3.7963999999999993  -1.3841453654587084 
H  -1.3130991759112256  -4.985099999999998  -0.3759366425626258 
H  -0.2770287880606606  -4.785499999999999  -1.5358393977189275 
Br  2.3455150599957273  4.018299999999999  1.110179682904184 
Br  7.1379239229945775  1.0885  1.2713621256517318 
O  1.220558524435245  1.3379999999999996  0.2495134333627288 
N  1.3186510339934059  -1.3379999999999996  -0.23095249630198994 
C  2.48737239085369  1.2295999999999996  0.4866184688426827 
C  3.240992126765292  2.3610999999999995  0.8661161811474154 
C  4.596086838871303  2.3270999999999993  1.0827170149923766 
H  5.055863634710063  3.1009999999999995  1.3181348308182885 
C  5.27092657552248  1.1259  0.9487426523830731 
C  4.6088260162544055  -0.013299999999999907  0.6036398569482876 
H  5.074286539474678  -0.8150999999999998  0.5239483183540983 
C  3.2220005474005995  0.022300000000000025  0.3700269957046832 
C  2.5808186991726094  -1.1726999999999999  -0.07565267345573254 
H  3.128953426274663  -1.8970999999999996  -0.27257098378963074 
C  0.8711298773791694  -2.5765999999999996  -0.8867276592829121 
H  1.650085010690631  -3.0873999999999997  -1.1577468473263486 
H  0.3748144909052647  -2.3474999999999997  -1.6876455559173043 
C  0.8469382989418521  -4.334999999999999  0.9087354195724324 
H  1.4835418673833165  -3.7963999999999993  1.3841453654587097 
H  1.313099175911225  -4.985099999999998  0.37593664256262643 
H  0.27710781368844567  -4.785499999999999  1.5359006753670015 
C  0.0  0.0  1.91 
N  -0.585068405729902  1.128856599246535  2.496826174394272 
C  -0.5859776763395902  1.285210599264397  3.7830117480598195 
F  -1.1219999562429055  2.371549892027159  4.314899355028581 
C  -0.15168339814589893  0.3202712929321248  4.678744824943334 
F  -0.24875542366092934  0.4989160318901654  5.987036676597629 
C  0.37595061653698203  -0.8110125315600007  4.171532024442303 
F  0.8483636653165927  -1.7855420265544817  4.965313899221864 
C  0.49557639242885754  -0.9235195473974014  2.788327157067398 
F  0.9735941858367948  -2.0847303098484975  2.25581299354388 
C  -9.906509232948061e-17  1.9857302067079894e-16  -1.91 
N  0.5499990248356542  -1.1463521857289802  -2.496826174394272 
C  0.6743677230282423  -1.2411141348673782  -3.783011748059819 
F  1.2198961508270876  -2.3227109534723365  -4.31489935502858 
C  0.1646471592745782  -0.31380386755474216  -4.678744824943334 
F  0.24898967731117538  -0.49879916626858445  -5.987036676597628 
C  -0.4218336332755277  0.7881221848542681  -4.171532024442303 
F  -0.9162904099102177  1.7516543956866182  -4.965313899221865 
C  -0.43977245231126055  0.9513592935090518  -2.7883271570673984 
F  -1.0800032397797286  2.0316444338420823  -2.2558129935438807 
