49

Pd  0.0  0.0  0.0 
P  1.5244288619020576  -1.4724865517212695  -2.0453244068601603e-15 
N  1.524428861902057  1.47248655172127  -2.1787290385605793e-15 
H  1.7014979079068784  1.7692414385412607  0.8965707390359144 
H  1.3272907957947755  2.1240450320880284  -0.5259844575209913 
C  2.787190779799011  0.9243858413571799  -0.4900060918066487 
C  3.8102754143303725  1.7656784891928468  -0.9161370238962361 
H  3.680531076682972  2.706217588433569  -0.9310845871722963 
C  5.015720812616088  1.2218867621553493  -1.3189502304292016 
H  5.723087618990458  1.7938538942255804  -1.5944678180186322 
C  5.200872940743677  -0.15568961885051852  -1.323251851588707 
H  6.03409610569437  -0.522630246843621  -1.5982354927705507 
C  4.177031527165198  -0.9863313612625221  -0.9280918009707548 
H  4.299809175587232  -1.92749079893617  -0.9512911959150481 
C  2.9582314536222905  -0.458618932180122  -0.4933593396525166 
C  1.542340086559241  -2.699049230944898  -1.372982811970734 
C  1.7977264744322032  -4.058855925042987  -1.2045166207773028 
H  1.9520400059711238  -4.406920659081397  -0.33339726907928424 
C  1.8280575904750882  -4.907803681841672  -2.306894228326598 
H  1.9990605004582398  -5.8339467412848  -2.1821420010013224 
C  1.6153217565097875  -4.421353986146531  -3.5719995277010272 
H  1.6378692709641332  -5.0080344783997  -4.319124918516735 
C  1.368712714902951  -3.076473190675027  -3.7542814976533125 
H  1.2236705942091004  -2.7370016013313583  -4.629907378525453 
C  1.3294361619402748  -2.2184296937595027  -2.664955582333033 
H  1.156998256904052  -1.2948135843898076  -2.800270257884172 
C  2.1265462230188206  -2.463395306232048  1.420896102350812 
C  3.354576820381321  -2.228677760189953  2.037580085863882 
H  3.9330098112794527  -1.5573790791632838  1.692603556383229 
C  3.7389546658805832  -2.9634076792750044  3.146645452688872 
H  4.583000768208023  -2.8026784354504404  3.550272827039866 
C  2.9081374903757657  -3.920089479426789  3.6630423680016624 
H  3.1695849989797624  -4.408541329230943  4.43485467722436 
C  1.6952214145002311  -4.174308704425769  3.0659552147956455 
H  1.124386529402304  -4.84507677279653  3.4207387437388443 
C  1.3035111640478472  -3.4488260922068372  1.9435207360581908 
H  0.46758637656038693  -3.6316263084025997  1.5328957604139337 
Br  -1.654629867976521  1.654629867976521  0.0 
C  -1.352040782177733  -1.3199206589279684  -0.4819701001757076 
C  -1.6380700204479186  -1.599217458033982  -1.8139382277462257 
H  -1.1579680913617836  -1.159339363685303  -2.503515938957912 
C  -2.63068216563725  -2.52632649780156  -2.142289956238523 
H  -2.8368222554424674  -2.694399528648736  -3.0538898079700485 
C  -3.3101544432602585  -3.1961573187854975  -1.1619874135498987 
H  -3.9960123560788676  -3.811990145619169  -1.3868663427944008 
C  -2.9974710358883443  -2.9701089012107795  0.12423560353005347 
H  -3.438659168087169  -3.468581175155742  0.8017084178296768 
C  -2.0389854250767776  -2.015940632791841  0.4912562833419403 
H  -1.8619130127668426  -1.8492165108145995  1.4101568590026907 
