24

Ru  0.0  0.0  0.0 
O  1.34892  1.30951  0.0 
O  1.34892  -1.30951  0.0 
F  6.80602  -3.91035  0.42731 
C  3.38257  0.14778  0.01721 
C  2.72055  -1.17086  0.06754 
C  2.69505  1.27492  -0.0334 
C  3.4452  -2.49936  0.11132 
C  2.69501  -3.70132  0.02575 
C  4.84395  -2.59277  0.2535 
C  4.71021  -5.01087  0.20203 
C  5.46205  -3.83596  0.29298 
C  3.32456  -4.93939  0.06459 
C  3.42376  2.57781  -0.18534 
H  5.45341  -1.70919  0.3277 
H  1.61791  -3.685  -0.08362 
H  2.73785  -5.84941  -0.00784 
H  4.46412  0.18805  -0.02476 
H  5.19753  -5.97647  0.23476 
H  3.22115  2.96644  -1.20716 
H  3.05894  3.31188  0.56266 
H  4.52406  2.46575  -0.07575 
Cl  -1.58392  1.58392  0.0 
Cl  -1.58392  -1.58392  0.0 
