78

Pd  0.0  0.0  0.0 
P  1.4356394176463652  1.5591790989171193  -1.9266023802412886e-15 
C  2.1331141832509997  1.9274494890209835  -1.6453574630205976 
N  1.4356394176463674  -1.5591790989171193  1.1102230246251565e-16 
C  1.1562791818156906  -2.8836958727978708  -0.542460306700097 
C  2.8511657447626226  1.0486719252686143  1.0325822354148055 
C  1.3291031255245676  1.7412980711360349  -2.7791690032128393 
H  0.45225249241211163  1.4485496560777449  -2.676949715937056 
C  0.815630839512269  -3.757324464244507  1.8643990683139617 
H  0.6817493065603815  -2.802741074155646  2.0413509727990737 
C  0.9452078027049083  3.1532799316734215  0.7273585264995491 
C  -0.055669208887607624  5.498664199933413  1.8439057945828332 
H  -0.41781957271849546  6.274953473462431  2.2081929035792136 
C  3.449656444934944  2.3709047472913194  -1.818956993874052 
H  3.9959401291204864  2.508282271880228  -1.078827328119115 
C  1.1662183462342894  -3.0429697241293012  -1.939649317998415 
C  3.245703603638077  -0.30239597094872517  1.1574262489870497 
C  1.3744389439846263  -1.8469601949513286  -2.859507844505601 
H  0.94246118869488  -1.0763551529555282  -2.4360629387793895 
C  0.9007078232329329  -3.9446259296135766  0.34679672319464117 
C  4.359009448341418  -0.6178860005044308  1.9432941688058842 
H  4.626391576976741  -1.5063254401827035  2.017757913746682 
C  0.545610534021575  5.539209907635565  0.5951024768605945 
H  0.6170224444079684  6.344316758972808  0.1364226353754885 
C  1.049093190746675  4.356636724554427  0.0292851025830079 
H  1.4494916401434454  4.3765974365865565  -0.8095918023892623 
C  3.60876382930576  2.0231251173715727  1.6884111831572457 
H  3.3764951546950743  2.91820762006114  1.5968604531023742 
C  -0.12301095225094505  4.3028741965304045  2.5571065358627436 
H  -0.4929289415557019  4.290481078887011  3.409483554454771 
C  0.3630628759020462  3.132693845686064  1.9962257998033537 
H  0.30171891542911755  2.3320255062585855  2.4650148448459532 
C  0.9977168884803022  -4.334318983748275  -2.4418814340725556 
H  1.017209100391592  -4.476486009431179  -3.3616736336933686 
C  0.7422200435348347  -2.0160040592405912  -4.247911836094623 
H  0.9080980364269311  -1.2308556206486283  -4.773664630524357 
H  -0.20489260637549078  -2.14484740067553  -4.154742733127345 
H  1.1273524073441998  -2.7804270724965927  -4.683858414417253 
C  2.8596093886396936  -1.509062412479833  -3.0070926639280735 
H  2.9583018516831343  -0.7508387896637846  -3.5874811506696225 
H  3.322955586807405  -2.2617991415798597  -3.3810405577679963 
H  3.226455781246573  -1.3026631186312263  -2.144644586806825 
C  1.8257959946745892  1.9878919295754098  -4.047984952322693 
H  1.2785432113055752  1.8658425190027792  -4.790733733859096 
C  4.697643968022101  1.6819061352998528  2.472845265654347 
H  5.179318401611397  2.3468589817817387  2.9092836828246247 
C  0.7260977848966261  -5.208785926607464  -0.21964410911939364 
H  0.5566022639100315  -5.935740470051002  0.3363511068063294 
C  5.069765669605966  0.3605055589126249  2.610906541665435 
H  5.794321847349796  0.1297673100162271  3.148741112690343 
C  -0.36964213564982407  -4.514879206236843  2.4646060636375187 
H  -0.39226993294339074  -4.372958893712334  3.4139529115717275 
H  -0.2759814765845128  -5.452345714103171  2.284636934139249 
H  -1.1852297330520472  -4.19397320169413  2.0733744478239067 
C  3.9438140122302485  2.610457673096577  -3.1086453532938725 
H  4.820340244413498  2.9036798727255517  -3.221965104173358 
C  3.1348335537898153  2.413733252397872  -4.216245127653867 
H  3.4695614469058134  2.5671424471248425  -5.069705259437064 
C  0.7980993896393958  -5.411660631777441  -1.5869236061194392 
H  0.7128521134060797  -6.269905406819242  -1.9336477587368397 
C  2.109926217517624  -4.184676992547876  2.568087366516177 
H  2.0194829832732997  -4.049173104542494  3.5147685048699913 
H  2.8427047166838193  -3.656893471352958  2.238468850781918 
H  2.2788122961689314  -5.113021985759554  2.392476472729375 
C  2.6149444023932285  -1.448642573562401  0.49652366460598407 
H  3.147099296212721  -2.2068702690343773  0.4262474893883246 
Br  -1.654629867976521  1.654629867976521  0.0 
C  -1.35204078  -1.31992066  -0.4819701 
C  -1.63807002  -1.59921746  -1.81393823 
H  -1.15796809  -1.15933936  -2.50351594 
C  -2.63068217  -2.5263265  -2.14228996 
H  -2.83682226  -2.69439953  -3.05388981 
C  -3.31015444  -3.19615732  -1.16198741 
H  -3.99601236  -3.81199015  -1.38686634 
C  -2.99747104  -2.9701089  0.1242356 
H  -3.43865917  -3.46858118  0.80170842 
C  -2.03898543  -2.01594063  0.49125628 
H  -1.86191301  -1.84921651  1.41015686 
