29

Fe  0.0  0.0  0.0 
O  4.932044767514602  -1.148782143349532  0.0778760616336597 
O  3.5227387379812587  -2.3621890019183005  1.2723060180142278 
N  1.3068703053478565  -1.337531309913902  1.6380034374454264e-16 
H  1.248863025983971  -1.6815930500683232  0.8185519803303438 
H  1.2108391261512568  -1.998416605419171  -0.5883832839289632 
N  1.3068703053478565  1.3375313099139023  -1.638003437445427e-16 
H  1.4726725358069155  1.7543717015125768  -0.768466289635841 
H  1.0389458833666323  1.9456086266627364  0.5921005074829557 
C  3.806011122588761  -1.4780472728726295  0.43135274399781004 
C  2.630684461461951  -0.6884994827218494  -0.1801758789730199 
H  2.795313263305567  -0.56465304356024  -1.1390112230809415 
C  2.551173964425505  0.6791106034433466  0.48757616563654105 
H  2.5236643825148395  0.5804007870664132  1.4528255349986465 
H  3.326245765703245  1.2128474997003416  0.25478415881919175 
O  -4.638900650499471  1.148782143349533  1.4302196828146265 
O  -2.88477351673889  2.362189001918301  2.0097405229776113 
N  -1.3068703053478563  1.3375313099139026  1.3047348196912071e-16 
H  -0.9464519235889176  1.6815930500683243  0.7372182709701354 
H  -1.438244004077254  1.998416605419172  -0.5815133940564718 
N  -1.3068703053478565  -1.3375313099139026  -2.220446049250313e-16 
H  -1.7484719953961065  -1.7543717015125773  -0.6503989277961684 
H  -0.8366503529747038  -1.9456086266627368  0.4486197758076848 
C  -3.462445739392847  1.4780472728726306  1.3361379278711234 
C  -2.6017844895816005  0.68849948272185  0.3288533453714953 
H  -3.1136116985507236  0.5646530435602406  -0.49849227023657783 
C  -2.2779193217831337  -0.6791106034433463  0.9181971035518133 
H  -1.890824103536084  -0.5804007870664128  1.8028554636892824 
H  -3.0837588027061518  -1.2128474997003413  0.9927031204879575 
