72

Ni  0.0  0.0  0.0 
P  1.4360248692136197  -1.4205395365846036  -1.9164059522532225e-15 
N  1.4360248692136222  1.4205395365846032  2.7012329019600274e-16 
N  2.7243969022500516  1.3204724343751355  0.49660576873917495 
C  1.4719153636897913  2.329101788292923  -0.9809594013907936 
C  3.5520724721345682  2.1575725004943997  -0.19397291636446795 
C  2.7768029931438  2.8004859544879475  -1.1221366387860547 
H  3.068109038756974  3.436237668355303  -1.7350344737503762 
C  3.109213073895403  0.3030822683296412  1.4196953494810258 
C  2.724315438932689  -1.0305690811815087  1.2342407228274808 
C  3.9352360158260673  0.6735353401710932  2.476016281285111 
H  4.160758337553748  1.5679490275611514  2.5979889758190873 
C  4.422431304303082  -0.2913277415671241  3.3504287436760127 
H  4.963954778517879  -0.04571719640844568  4.066628511185883 
C  3.2591525588265124  -1.9777774906250725  2.1164428222713014 
H  3.0430174703240507  -2.875178338802082  2.0040177307248945 
C  4.094639089385947  -1.6132177640826386  3.144268509358914 
H  4.443488886865326  -2.2658553895224887  3.707659349414798 
C  1.2024904129716465  -3.2404939999541105  0.10145643897346193 
H  2.103492636292084  -3.6272731679039207  0.0957890928841465 
C  0.48151286886544675  -3.8310504810619754  -1.1282912601567865 
H  -0.44824384476141566  -3.5519242654317305  -1.1292655361659811 
H  0.8967736941143504  -3.502687128274561  -1.9416133154090869 
C  0.6103790862741063  -5.276620760603223  1.4256745823943564 
H  1.539590593117092  -5.553354617617268  1.474571289162167 
H  0.16046081701257098  -5.603229262549953  2.2206610963937123 
C  0.5642370016106191  -5.347877876222386  -1.0819988077218021 
H  0.08817084956087484  -5.718896754209531  -1.8421779912369356 
H  1.492309111935751  -5.62123822628602  -1.1465239737406465 
C  0.5354191968332338  -3.7452101388120305  1.388797862907312 
H  0.9886490112556275  -3.3746720112597806  2.1627495030946893 
H  -0.3913418879334196  -3.461257732270914  1.4129708350382923 
C  -0.03164838077976828  -5.89003032264543  0.19749915081154884 
H  0.08660099858011083  -6.851920836643539  0.22118508253185182 
H  -0.9841502554502006  -5.706962457723309  0.2092853962782695 
C  2.227894875168859  -1.0370159520810118  -1.625532799976068 
H  2.6407400379388206  -0.1575920621950728  -1.4976424036386653 
C  1.248013088433238  -0.8399580541551063  -2.8002357619579077 
H  0.8650639497126029  -1.6942962114146387  -3.0541206969255126 
H  0.5248709850819395  -0.25223731953387996  -2.5283518226438106 
C  3.385855096233003  -1.9501664146994406  -2.020885426188244 
H  3.993572756647218  -2.057209658540154  -1.273489748405219 
H  3.04783378873325  -2.8252996989084305  -2.2680656854035575 
C  4.115155213100525  -1.3179717436808538  -3.2017559726381237 
H  4.510360662916902  -0.4783922815931624  -2.9209343757550204 
H  4.833529045382205  -1.9052853090645452  -3.484916338878274 
C  1.980832630238519  -0.23522193250838846  -3.983148785947426 
H  1.3752950361678806  -0.17749975168324653  -4.739025622481005 
H  2.2682494623320895  0.6631563647041747  -3.7580020566201857 
C  3.1871837902332043  -1.0642903636705356  -4.373072875008159 
H  2.887623512566974  -1.9155656072356975  -4.729427641691068 
H  3.6763549945241296  -0.6036089196514485  -5.07177962324314 
C  5.036517258076028  2.232486420353231  0.047686745355622846 
H  5.2118565270960975  2.8046347971271093  0.7970212739171619 
H  5.470868810212075  2.585019624887643  -0.7328029719742987 
H  5.37635164552837  1.3532341905962229  0.23074500267339798 
C  0.2851324797142789  2.688592307105094  -1.7874022655708777 
H  -0.4748583719787631  2.1911713224707006  -1.4774904565215294 
H  0.45031166780730003  2.4811907442395094  -2.7099770091780693 
H  0.11130248928211128  3.628208421704172  -1.6972113480010786 
Br  -1.5839191898578664  1.5839191898578664  0.0 
C  -1.2937473829822488  -1.2398794889499034  -0.4598005675376139 
C  -1.601562203225019  -1.4938654694550033  -1.7919791134336869 
H  -1.1309417375171225  -1.0428217585005106  -2.480879663633267 
C  -2.60218398542082  -2.411889969420291  -2.121542410022959 
H  -2.8231586547736818  -2.5626138747145775  -3.03270050271447 
C  -3.2683208079706407  -3.09759503004543  -1.143064365570095 
H  -3.9596020908062854  -3.707191723557817  -1.3683280760515548 
C  -2.9347449854640226  -2.896087320001541  0.14198826503765638 
H  -3.3668350933519986  -3.405606940434718  0.8171022443470677 
C  -1.9675509241539992  -1.9516175659140573  0.5112421903797603 
H  -1.7755298364628027  -1.8022912010877177  1.4301324877763764 
