62

Ni  0.0  0.0  0.0 
P  1.4250760172706554  1.4315230857377053  -2.4470429384686347e-15 
N  1.4250760172706571  -1.4315230857377053  2.7755575615628914e-16 
C  1.5634672723914362  -2.7281487311728756  -0.343485685445439 
C  2.2164996796531478  -3.64511068804104  0.5237130545919912 
H  2.213965404633341  -4.572598524757129  0.3205047127508153 
C  2.8438657988301257  -3.201265956279294  1.6409321094761256 
H  3.2664861620099592  -3.8202171585530547  2.224253957026537 
C  2.871387433632906  -1.8197178592181662  1.9408976827083781 
C  3.5807947217644194  -1.2646083587727048  3.0261047422417913 
H  4.083293370119604  -1.8317193981183535  3.598029350432028 
C  3.5521064237646582  0.0781664795453425  3.262475521184155 
H  4.000483025888588  0.4349402613225375  4.021187766573839 
C  2.86429233760159  0.9357463273529367  2.391418033121503 
H  2.8640787052042835  1.8708849453306864  2.5554782645240697 
C  2.1896522500625104  0.43631217073815476  1.3032719512502475 
C  2.1402900350371397  -0.9655994540162599  1.0826925594063443 
C  1.1248573532579231  -3.1704164293383834  -1.6841101339757207 
C  1.3900298537403701  -2.371807918312617  -2.7898761585510465 
H  1.8115547650898907  -1.5285082907848544  -2.6756382168533612 
C  1.0398483392577962  -2.8057093769676893  -4.0569076503032395 
H  1.2175715399470095  -2.25318054045759  -4.809436426338803 
C  0.43487560047991136  -4.034399348875191  -4.23639087589701 
H  0.18498202425088683  -4.322185797521738  -5.106591669125188 
C  0.19363934288145312  -4.841488722082613  -3.143587923999642 
H  -0.219536951855539  -5.6879134581360935  -3.2656868005882758 
C  0.549724906997974  -4.4245316286576  -1.8693418161890578 
H  0.4015343738446737  -4.99451771769054  -1.1235943293058033 
C  0.632942292894886  2.810069540671779  0.8838060671297074 
C  -0.3071338597806086  2.484070746346006  1.8555131645973775 
H  -0.47421034668412876  1.5720661388008828  2.063966212885106 
C  -0.9975950116932144  3.475559905089524  2.51720206112928 
H  -1.6309561448997214  3.2478930457513453  3.187876025215037 
C  -0.7664990974532668  4.79714847313211  2.205460958223768 
H  -1.2395790770714963  5.481941292589035  2.6646575798409837 
C  0.15424224274553477  5.134607798666533  1.2226146843544483 
H  0.3004890263740443  6.0470039577036205  1.0009529211820694 
C  0.8585361922300175  4.142513770180693  0.567785659827962 
H  1.495287483655223  4.372347548816859  -0.09762795369837148 
C  2.766124342314293  2.128566622751841  -1.0049108007204088 
C  2.621465224637844  2.1080289099528535  -2.391915156166377 
H  1.8351305678808665  1.7479785027081882  -2.7822847526078385 
C  3.6297419779517672  2.61386914209053  -3.1977174757694447 
H  3.530307478765906  2.6072127387848916  -4.1420133683088345 
C  4.775212759332801  3.1232162369885845  -2.6311014806534336 
H  5.463238361907965  3.470243997106053  -3.1876151138278055 
C  4.931042905081432  3.133993859196508  -1.2585376502486054 
H  5.731492326460533  3.4692874879071134  -0.873554642363811 
C  3.920758248306728  2.657744634302821  -0.44675364075234564 
H  4.015512225872282  2.6919203527997304  0.4975452123660688 
Br  -1.5839191898578664  1.5839191898578664  0.0 
C  -1.2937473829822488  -1.2398794889499034  -0.459800567 
C  -1.601562203225019  -1.4938654694550033  -1.7919791134 
H  -1.1309417375171225  -1.0428217585005106  -2.480879663 
C  -2.60218398542082  -2.411889969420291  -2.121542410022 
H  -2.8231586547736818  -2.5626138747145775  -3.032700502 
C  -3.2683208079706407  -3.09759503004543  -1.14306436557 
H  -3.9596020908062854  -3.707191723557817  -1.368328076 
C  -2.9347449854640226  -2.896087320001541  0.14198826503 
H  -3.3668350933519986  -3.405606940434718  0.81710224434 
C  -1.9675509241539992  -1.9516175659140573  0.5112421903 
H  -1.7755298364628027  -1.8022912010877177  1.4301324877 
