63

Pd  0.0  0.0  0.0 
P  1.682264204130849  -1.2892195885495994  -6.667216145164085e-17 
N  1.682264204130849  1.2892195885495998  1.0579410409694116e-16 
N  3.835228656598971  0.7799202916480629  0.20012139461911524 
C  2.5687910839039754  0.28842065448162013  0.1504581171227838 
C  3.727504355226319  2.141222113763899  0.08115806414339344 
H  4.450181459119701  2.7567295044736015  0.09046964242155602 
C  2.4076806061454548  2.463321757368581  -0.052815630856391745 
C  1.8027828521280436  3.82597525379613  -0.29980286910661513 
C  1.0323067891984148  3.795646196320368  -1.6237665222048159 
H  0.305364199136426  3.140805653639985  -1.5639185112433318 
H  1.6399374749871087  3.5443619598122464  -2.350214746217034 
H  0.6584895788276524  4.6827083462886225  -1.8044179969409073 
C  2.935458569497408  4.851111969634321  -0.4036157927833851 
H  3.431770862224491  4.875613001328647  0.4396734266033679 
H  2.5576566802278853  5.737832649457452  -0.5862536542425774 
H  3.540366114212315  4.597581606845061  -1.132078816890263 
C  0.8690093662654522  4.215768315011834  0.8467587674956915 
H  1.3724413044865365  4.230683314885233  1.6868732991863207 
H  0.1426917791884823  3.5610433887875805  0.913584314132746 
H  0.49401389610779467  5.104919089000326  0.6743945935008929 
C  5.115620077175663  0.0862270039078939  0.4119718198202033 
H  4.9588900799754825  -0.8797173519337708  0.4676155022582203 
H  5.522741956665955  0.40030563224733734  1.247066790743115 
H  5.717907073019973  0.277467826797791  -0.3369776659912755 
C  2.0752844919488496  -1.9079232035771743  -1.7249767100211337 
C  3.571490610962992  -2.049295721974173  -2.002780850499292 
H  3.7058071750165933  -2.3760056430310352  -2.9165941947353375 
H  3.9624861567426133  -2.688138927829103  -1.3684913806879877 
H  4.007634923334605  -1.1780108454670521  -1.8987994927669565 
C  1.3523976135347338  -3.2234131791118976  -1.9872858316398054 
H  1.56447214664191  -3.538703897318637  -2.890366047024945 
H  0.38590062147642556  -3.0866942046520878  -1.9068711167865369 
H  1.6428960190131177  -3.8916777809313996  -1.3319957368195412 
C  1.5246041626789797  -0.8275001923452047  -2.6698974007437353 
H  1.6973739502211718  -1.0865171262840363  -3.598551199769814 
H  1.9669027638480998  0.0266023009614548  -2.4821385971387113 
H  0.5597477233363013  -0.7339454317200639  -2.530615893631839 
C  2.13549966836902  -2.428521145899068  1.4071326822222292 
C  3.5918867939219714  -2.913671507835208  1.428673964377066 
H  3.7279549500378293  -3.5028702073791482  2.2003544418720993 
H  4.191547834639927  -2.1411413129438333  1.4962727382280576 
H  3.7838883419733333  -3.4055388209229673  0.6042491455720185 
C  1.8528534794069245  -1.6094680696206083  2.6761363977818142 
H  2.069120390997509  -2.14653721296101  3.4669939185924115 
H  0.9048514602413296  -1.3602100123787666  2.699671319876348 
H  2.404338831869192  -0.8001717292091165  2.6722083682323787 
C  1.2085573877575966  -3.6628315877612203  1.3706783062849512 
H  1.4398348487064958  -4.266109696399791  2.1073953956038545 
H  1.3213998662532658  -4.130082644408365  0.5171240929457516 
H  0.27670039836238614  -3.374985096522678  1.464949928722338 
Br  -1.654629867976521  1.654629867976521  0.0 
C  -1.35204078  -1.31992066  -0.4819701 
C  -1.63807002  -1.59921746  -1.81393823 
H  -1.15796809  -1.15933936  -2.50351594 
C  -2.63068217  -2.5263265  -2.14228996 
H  -2.83682226  -2.69439953  -3.05388981 
C  -3.31015444  -3.19615732  -1.16198741 
H  -3.99601236  -3.81199015  -1.38686634 
C  -2.99747104  -2.9701089  0.1242356 
H  -3.43865917  -3.46858118  0.80170842 
C  -2.03898543  -2.01594063  0.49125628 
H  -1.86191301  -1.84921651  1.41015686 
