129

Fe  0.0  0.0  0.0 
O  0.21539787128663498  2.129912693489278  -0.0010903707793264619 
O  2.0806151119814467  -0.5760886444433345  0.0010739124156391247 
O  3.6712857094979934  -4.440259369931393  0.24478697008274772 
O  1.5922614823869716  -5.230218694058341  0.4228987027403978 
O  -4.279695614981139  3.5114422144052257  -0.4398586838453323 
O  -2.695607945990665  5.035073959892704  -0.3983803630607461 
O  -5.957890544113528  -2.4273538465249325  -0.17115610381531737 
O  -4.419251894759541  -4.650223748004455  -0.24682246232794613 
N  -1.8926559890135628  0.33362917344289234  0.0013381438294681825 
N  -0.403356994254519  -1.8874532224888356  -0.0013216854657808453 
C  -0.6369970112690301  3.0560438301083  -0.10921595506756306 
C  -2.0407606679710106  2.767992783841031  -0.18967781477151494 
C  -2.5448430197795977  1.447126284423776  -0.13753183398362842 
H  -3.488112840722306  1.363291468665798  -0.21399639156122166 
C  -2.5920499688226686  -0.9161925036748165  -0.01822550648065411 
C  -3.9912654192163313  -1.0189140189249657  -0.04108581453578799 
H  -4.521577790286972  -0.2304652817637205  -0.012524337713441337 
C  -4.6033002955614215  -2.247087882827271  -0.10175055029330912 
C  -3.8325146085921213  -3.405163095180634  -0.10666962500092741 
C  -2.45968079055183  -3.316609664336919  -0.09235711541228271 
H  -1.9380627177892646  -4.110949519032331  -0.12012240687378248 
C  -1.8188265274704232  -2.0732760021895986  -0.03775566797984209 
C  0.38899304831438875  -2.9192797093734755  0.08983362707469611 
H  -0.02933975161404853  -3.771823271001703  0.09658522172280314 
C  1.82130463056848  -2.909364246770666  0.18268552496672752 
C  2.5866643785589445  -1.7326089487031768  0.19697834225606012 
C  2.481355463321687  -4.2143559948185905  0.2932490619426382 
C  2.1431468359464017  -6.556689982933312  0.4797112631832979 
H  2.5952979340822884  -6.759471418548415  -0.36603744880176226 
H  1.4223162176498811  -7.204385883687323  0.6285470783378069 
H  2.7886388363493424  -6.611600733513563  1.2148218921953695 
C  4.065814711217042  -1.7173304801601592  0.4846644764308257 
H  4.559617319831178  -1.922820139558124  -0.33552964303503724 
H  4.273174521396447  -2.3900832436244137  1.1665941783602611 
H  4.3267447400141  -0.830311659667989  0.8096712489212538 
C  -3.0868933527795783  3.771975672602451  -0.34638558372217904 
C  -3.7405646011504046  6.023970901661595  -0.5598211181305272 
H  -4.239574452699211  5.8407563732858465  -1.3833087893492833 
H  -3.3412869898675535  6.916796613047937  -0.6110781977950455 
H  -4.350004206501128  5.984130493565164  0.20601278638967938 
C  -0.07611391297016798  4.444658647521223  -0.14178617004909402 
H  0.8942201573904457  4.408657630200631  -0.005250575242146246 
H  -0.4863635294726917  4.980110955239757  0.5689150810532432 
H  -0.26782492228658816  4.854926318154979  -1.0120579306731152 
C  -6.784093275235584  -1.2676402542206953  -0.3381070873741346 
H  -6.468205474344152  -0.7209637591232603  -1.0995902434294458 
H  -6.7714220320863845  -0.7104119521910593  0.4803392450229402 
C  -8.178847316361487  -1.7901888096414882  -0.6026593733037993 
H  -8.141876082812116  -2.4305936635133607  -1.356430241026334 
H  -8.755044312880338  -1.0342648634140184  -0.8802100150298561 
C  -8.811600776141187  -2.4761140975536575  0.5932633618841497 
H  -9.023180270911817  -1.7981391434080514  1.2832721509179348 
H  -8.163805303492031  -3.1154881468345006  0.983435581194385 
C  -10.08380024298404  -3.220416910750124  0.2147873932512804 
H  -10.707560309654575  -2.5834006871955957  -0.21531175828880572 
H  -9.856911604851206  -3.914236451271361  -0.45471117364571234 
C  -10.794832880035868  -3.882511586510137  1.3770451268789676 
H  -11.07901999165022  -3.1850930106465745  2.020334117638744 
H  -10.160850429960211  -4.482758261412215  1.8441459428331537 
C  -12.014710827768681  -4.687062423043061  0.9499381565900807 
H  -12.632036255197793  -4.092363671124082  0.4554412798401146 
H  -11.723968664532519  -5.402196111484662  0.32886731347098136 
C  -12.76675286174517  -5.319243297264562  2.108638666385883 
H  -13.067166776134007  -4.60561161343538  2.7238094068122334 
H  -12.148251404667231  -5.909121379054853  2.6084532582255706 
C  -13.977353731583708  -6.134065731376156  1.6654883140057595 
H  -14.595414315287748  -5.544065314165456  1.1649876720854677 
H  -13.67608172148245  -6.848591942843951  1.0494267918709752 
C  -14.728830391328604  -6.764113375973497  2.820851207384283 
H  -15.047553225121334  -6.0454902058287825  3.423251335663066 
H  -14.102853513134065  -7.3319478379869985  3.335580788538945 
C  -15.917947227194851  -7.609026563662116  2.395586682730158 
H  -16.557753154922715  -7.03782856922041  1.899710855541471 
H  -15.605650719370587  -8.31708223963369  1.7791344940527156 
C  -16.640769414960772  -8.257516641916313  3.5641801420987957 
H  -15.991756260489524  -8.793481367835952  4.084791040844839 
H  -16.99026810259921  -7.54707642353596  4.157937578638911 
C  -17.788966773783308  -9.152920448896827  3.1375214287953437 
H  -18.458553284399798  -8.619388934427553  2.6603360582436553 
H  -18.199139935008994  -9.558907952099164  3.930756409777438 
H  -17.451777270439983  -9.857839530376749  2.547916224102756 
C  -5.290746588371592  -5.063188745489825  0.8224886102126625 
H  -5.596362484665329  -4.270219433426588  1.3302216936911089 
H  -4.800015101575836  -5.65861796147663  1.443126045932233 
C  -6.478350077317118  -5.790403686543981  0.25263676757984665 
H  -6.164346563563771  -6.521699697225753  -0.335757036017267 
H  -7.015423004086328  -5.165299835287121  -0.29453729656738237 
C  -7.349650329309303  -6.3727129828520575  1.3584887849454395 
H  -6.792811534170708  -6.971578066772565  1.9164844726433665 
H  -7.663191982028826  -5.631248695150026  1.93517435097985 
C  -8.562294416590737  -7.153497603561108  0.8703318494773418 
H  -9.145914248308745  -6.547173277502748  0.34770600467503693 
H  -8.258491196627325  -7.875538524252296  0.26671348296810327 
C  -9.36794237980985  -7.762503556100235  1.999328531993639 
H  -9.676967790529396  -7.034605293010882  2.596670732178024 
H  -8.774148338980284  -8.350402773358473  2.530058131151672 
C  -10.58045755841253  -8.571433810066774  1.5518298885591162 
H  -11.186564365842528  -7.981539021349443  1.0368947021218793 
H  -10.276663706970286  -9.293749460655636  0.9456494065735304 
C  -11.356818074887782  -9.188102700160762  2.6982226870573154 
H  -11.659788411594349  -8.464273042445363  3.302957622121861 
H  -10.75073647991336  -9.775314224215274  3.2151652237582917 
C  -12.56982322008779  -9.999545023412256  2.2590276236122353 
H  -13.172875372036827  -9.414030278271415  1.7356832577762313 
H  -12.265103902132294  -10.727505073393006  1.6598109241647314 
C  -13.354791237830558  -10.608076794277288  3.4070538885421167 
H  -13.668073877823197  -9.879731235411654  4.001069540154054 
H  -12.74945462711716  -11.186972623133489  3.936369953916018 
C  -14.559097630194369  -11.433046219830091  2.9655852370902456 
H  -15.16313683324164  -10.85672396255494  2.4333789359707545 
H  -14.246145874964625  -12.16528342929694  2.3772805898445974 
C  -15.34546992137389  -12.031632345207585  4.114103591393142 
H  -15.673994333927906  -11.297815914224692  4.692624149347285 
H  -14.738033146186144  -12.593062093857412  4.657416633276461 
C  -16.533514011056617  -12.877877285617684  3.6715080064623207 
H  -17.11036432370712  -12.348423018193841  3.081919950696513 
H  -17.044515092876807  -13.162556905403513  4.45877827038519 
H  -16.20958942509145  -13.667274456255283  3.1879842535849177 
P  0.0  0.0  2.27 
H  0.8983688990563866  -0.8900192527607542  3.056540450913622 
H  -0.898368899056387  0.8900192527607541  3.06004811304338 
C  -1.1772968763501022e-16  1.8144226687588952e-16  -1.91 
H  0.9239249834599568  -0.21997400172537768  -1.708734022985896 
H  -0.5267325489940757  -0.7877123178756206  -1.7070793601005028 
C  -0.08480214248783596  0.21586009536431958  -3.314424866576627 
H  -0.9637049191108419  0.5321551840851988  -3.5366345560490258 
H  0.08414530908124129  -0.6094554893601137  -3.7752179158072776 
H  0.5671693180515555  0.8691265295115942  -3.5785176356155377 
