57

Ni  0.0  0.0  0.0 
P  1.3642370019538357  -1.4896165286744105  4.144809832973051e-15 
N  1.3642370019538403  1.48961652867441  -6.265146212298734e-16 
C  0.9850194759252375  2.5181091141879177  0.9985042461084056 
C  0.4143141542223351  1.9418308281488197  2.2704214654351484 
C  1.5752673457188298  2.115918027779162  -1.3377470636221238 
C  2.646972076007015  3.1513714953723193  -1.4523530736183634 
C  2.612201752460212  0.8060638455512507  0.4591442484543872 
C  2.844917733884017  -0.48744477086740773  -0.26020383921990115 
C  1.5422829652030514  -2.8749365021553475  -1.1238606880060618 
C  1.5326414489413662  -2.6051345146883818  -2.5000104650009516 
C  1.7114826102416916  -3.6268503896823145  -3.415571063656314 
C  1.8524712558732115  -4.9025042834337444  -2.949476303806108 
C  1.815919183780745  -5.173829414579855  -1.6002531387091248 
C  1.6575033412607818  -4.176392704259387  -0.7027678966333638 
C  1.5472142974389262  -2.18214640474796  1.6676061885476974 
C  2.7541843825687193  -2.7126424383165593  2.109566449170525 
C  2.8622118815098063  -3.262430191899552  3.386755278389899 
C  1.7367710188758287  -3.296901731394145  4.20044610276892 
C  0.5397681920742978  -2.7863086053385167  3.7781939124206696 
C  0.4563188685259082  -2.2305128692796825  2.5216706933044644 
H  1.765027727809388  3.028010129233662  1.2031589353973773 
H  0.34156232656946317  3.0973928146500036  0.5913387375963213 
H  0.18967221596650852  2.653257762262569  2.8733830205895208 
H  -0.3799232117365694  1.451880508082573  2.078685448000611 
H  1.0428184031296153  1.372274741955955  2.6873457796531786 
H  1.7694139319619273  1.4178677477347215  -1.9505629899654513 
H  0.7382319361915055  2.5192139824330795  -1.5912426970307285 
H  3.4743231294875674  2.7906753634099974  -1.2359545877362748 
H  2.6624520278026935  3.481811911093287  -2.3618103363583853 
H  2.440757942458379  3.889516037161525  -0.8847677174369384 
H  3.340636262851627  1.3942033251659345  0.29901140800812326 
H  2.535953273783697  0.6398142402112921  1.3871426526684503 
H  3.6132125140316647  -0.9362469304372449  0.09451985940106422 
H  2.986494167282153  -0.3413438141375104  -1.1936557094033025 
H  1.382700955495198  -1.7099457400400138  -2.8238191834887028 
H  1.771473002997495  -3.440879178523345  -4.336926207668151 
H  1.9751467913268719  -5.613694505619817  -3.583998699682011 
H  1.8896627992472481  -6.081881308447941  -1.2917010892579608 
H  1.6349555814481567  -4.345527924734017  0.2202720785152994 
H  3.504187356764292  -2.7106789161994937  1.5365690204863236 
H  3.7019929634799005  -3.5750968923788133  3.6893962022196725 
H  1.795473664367627  -3.7716545327941984  5.036430257508143 
H  -0.23007384145193455  -2.7767034219073605  4.362252388831614 
H  -0.3751720057955654  -1.8640011030025958  2.2269342837779256 
Br  -1.5839191898578664  1.5839191898578664  0.0 
C  -1.308147545195113  -1.308147545195113  0.0 
C  -2.5481111008682706  -1.081588847540519  0.5874691967409313 
H  -2.7399447190521347  -0.23895174706744582  0.9782000501948406 
C  -3.514692573752534  -2.090568128666735  0.6049610958635798 
H  -4.3504064840370384  -1.9365173000894942  1.0287619599160838 
C  -3.2692344052199704  -3.300825455744854  0.016423527177974795 
H  -3.920165040096455  -3.990528127682657  0.045080339651694334 
C  -2.0939695739763726  -3.5035118821402764  -0.6007549227026172 
H  -1.9425337635726068  -4.327915038834382  -1.0474288760065322 
C  -1.0854604411866036  -2.53050399443706  -0.5998012209931928 
H  -0.24896772463074335  -2.712575304189299  -1.0129111498427692 
