57

Pd  0.0  0.0  0.0 
C  0.26489  -2.02772  0.0 
C  -0.62601  -3.08566  -0.06001 
H  -1.66854  -2.92302  -0.12125 
C  -0.13834  -4.39941  -0.04461 
H  -0.80873  -5.22538  -0.0999 
C  1.22158  -4.66256  0.04463 
H  1.58208  -5.67246  0.07015 
C  2.11359  -3.62034  0.09194 
H  3.16409  -3.82256  0.1479 
C  1.63657  -2.32841  0.05931 
C  2.54714  -1.19579  0.0738 
C  4.00567  -1.11626  0.10874 
H  4.55755  -2.01714  0.14814 
C  4.5992  0.08219  0.10231 
H  5.66122  0.14564  0.14986 
C  3.82191  1.32961  0.04126 
H  4.34524  2.2621  0.04767 
C  2.49733  1.24473  -0.00456 
C  -0.37734  3.25874  0.04898 
H  -1.42587  3.37847  0.08726 
C  0.59788  4.24396  0.06 
H  0.43784  5.28743  0.10315 
C  1.8245  3.64456  0.01036 
H  2.78655  4.10335  0.00482 
N  1.88384  0.0165  0.0 
N  0.25127  2.01122  0.0 
N  1.59448  2.29633  -0.01982 
N  -1.93972  0.0  -0.06028 
H  -2.38733  -0.04352  0.86774 
C  -2.81206  -0.00644  -1.08371 
O  -4.01328  -0.03237  -0.85718 
C  -1.12666  0.18129  -2.81595 
N  -2.42425  -0.04007  -2.34795 
H  -3.1256  -0.08046  -3.06882 
N  -0.06028  0.0  -1.93972 
H  0.87467  0.04253  -2.40349 
N  -0.86844  -0.19921  -4.18481 
H  0.02482  0.2738  -4.47382 
H  -1.6458  0.23892  -4.72357 
N  -0.01358  -1.14205  5.3378 
N  0.02383  1.13355  5.33976 
C  0.0  0.0  1.95 
C  -0.00642  -0.04921  3.1114 
C  -0.00166  -0.01034  4.51691 
C  0.04581  0.67055  6.66017 
H  0.08031  1.27094  7.53847 
C  -0.00389  -0.6927  6.65587 
H  -0.01147  -1.31605  7.51668 
C  -0.00514  -2.48655  4.90199 
H  0.67852  -3.05948  5.53451 
H  0.34053  -2.53163  3.86026 
H  -1.0278  -2.86127  4.97244 
C  -0.01925  2.4897  4.92233 
H  0.90286  2.98639  5.23893 
H  -0.8904  2.97552  5.3816 
H  -0.1131  2.53613  3.83118 
