54

Pd  0.0  0.0  0.0 
P  1.4768297379860686  -1.5202216696916262  1.6032286101771518e-15 
N  1.4768297379860698  1.5202216696916262  -6.302626700282921e-16 
C  0.8198422314722027  -2.924049813670722  0.9173031442532705 
C  0.29407727236632275  -4.025954531513481  0.24775197326461157 
C  -0.2664391856804367  -5.06410104755422  0.9653239637235518 
C  -0.3405367521198903  -5.015566934752784  2.3335613080985436 
C  0.2116004118136423  -3.9333549864559783  3.0178040290441626 
C  0.7862857133703456  -2.8927190966117657  2.293268785634429 
C  2.668920708498846  -2.0157356924280654  -1.3147115696203195 
C  3.687019692564358  -2.755430966754801  -0.46921490505949015 
C  3.8917125649123685  -2.1680333340259264  0.6839693339389643 
C  3.0216904745706046  -0.9307166633712086  0.8141436741034703 
C  3.4813012618194588  0.08233746926222137  -0.2857612575150901 
C  3.2359030940761606  -0.6106939293848663  -1.6380519916982113 
C  4.420638168993926  -3.942332539053802  -1.081968214895772 
C  4.906732204694457  -2.4648864469614518  1.7640013428151957 
C  2.8139467415697643  1.418377949735046  -0.04905257824825044 
C  3.608485652653676  2.530193123599033  0.2711054107812195 
C  3.0346451124722926  3.714238267071516  0.6587825737191084 
C  1.689113889412177  3.8143784196789188  0.7711187104078414 
C  0.9242860282744345  2.6970794567292957  0.4014120426032441 
H  0.31976123486221386  -4.063739715177947  -0.6804936967850636 
H  -0.5978905650270294  -5.806745349045469  0.5144539441039135 
H  -0.7576454767631728  -5.701580014813372  2.8026737741578587 
H  0.19651845160646952  -3.9078159543700335  3.948409639556188 
H  1.1520912576215685  -2.168817791992663  2.744756398937195 
H  2.293360125618689  -2.513920730241417  -2.069787960911711 
H  2.9208694444910286  -0.5680377948928763  1.7189314106765219 
H  4.447819702691408  0.2114306264725174  -0.1895835562744839 
H  4.065436384010174  -0.6873527892889228  -2.135822963219721 
H  2.601706971023199  -0.10314644444702008  -2.169098362590487 
H  4.041496845295277  -4.145075097027285  -1.9396673590310693 
H  4.333634411879424  -4.704950516493349  -0.505140661172849 
H  5.350437240294548  -3.723739858377563  -1.1851245378398307 
H  4.793494015713703  -1.8444470506520134  2.48879353928501 
H  5.792267619484702  -2.3763883037746814  1.4040571696372486 
H  4.7785976853397045  -3.359302410835858  2.0858776832261414 
H  4.534863392902212  2.4640015792958847  0.21862501601536546 
H  3.5717461979247522  4.449379445677854  0.8467209453281846 
H  1.2867496026054455  4.594063148314865  1.0804928118358779 
H  -0.0024996633192755358  2.7642947990949445  0.4321854013386539 
Br  -1.654629867976521  1.654629867976521  0.0 
C  -1.3788582233137676  -1.3788582233137676  0.0 
C  -2.618821778986925  -1.1522995256591737  0.5874691967409313 
H  -2.8106553971707884  -0.30966242518610043  0.9782000501948407 
C  -3.5854032518711887  -2.161278806785389  0.6049610958635797 
H  -4.421117162155692  -2.007227978208148  1.0287619599160838 
C  -3.3399450833386255  -3.3715361338635086  0.016423527177974573 
H  -3.9908757182151104  -4.061238805801311  0.045080339651694 
C  -2.164680252095028  -3.57422256025893  -0.6007549227026177 
H  -2.0132444416912625  -4.3986257169530365  -1.0474288760065327 
C  -1.1561711193052586  -2.601214672555715  -0.5998012209931929 
H  -0.3196784027493984  -2.7832859823079534  -1.0129111498427692 
