76

Pd  0.0  0.0  0.0 
P  1.4608292045958038  1.535603475836128  1.983306449621812e-15 
N  1.4608292045958011  -1.535603475836128  -4.996003610813204e-16 
N  2.758908590290255  1.0433422300816495  1.0020896588446675 
C  2.6471722952039505  -1.4113331951270447  0.49636328298821536 
H  3.18039643144465  -2.198640686301946  0.48643580242940654 
C  3.264848547898093  -0.25903086067411896  1.0561131886354371 
C  4.443225511218695  -0.21733590100027667  1.768053574238848 
H  5.003880787514723  -0.9589777590195752  1.9581265749388777 
C  4.67081846728056  1.1070075489861713  2.1645719380368176 
H  5.403610211172596  1.4206351798026267  2.6830420039732554 
C  3.6564651725830095  1.857364785168256  1.6746860618927628 
H  3.5726169695637124  2.7973434565593562  1.776965268871783 
C  1.149949965865646  -2.8382373793644007  -0.5490741592037107 
C  0.9597070925878114  -3.924058567084826  0.3217916498991664 
C  0.6911472730392992  -5.158885245871499  -0.25607533884543393 
H  0.5725522968420167  -5.915033947845336  0.30567683260035194 
C  0.5925855509513263  -5.312295291958906  -1.615645930870191 
H  0.41587622813529634  -6.169562412485064  -1.9864882683866658 
C  0.7525205174886005  -4.216365371584335  -2.4472004907798466 
H  0.6770151498812982  -4.329025181048365  -3.3863614816616106 
C  1.0196831455963906  -2.9589955489817426  -1.935001945925532 
C  0.9795462901073941  -3.788617271025794  1.8314074955909405 
H  1.0993702705414319  -2.819824816847502  2.0544411128779747 
C  2.156634153684566  -4.561458739331149  2.4353116570991866 
H  2.0616549789427854  -5.515940018557176  2.2288154489683287 
H  2.164217279909508  -4.436504818596161  3.4071592500321706 
H  2.995876216328784  -4.226217267101676  2.0565107653550974 
C  -0.3408807645168759  -4.253087963638444  2.4453195569810404 
H  -1.080310236161849  -3.7501387178512333  2.0468428040519338 
H  -0.322926520230185  -4.097469567509273  3.412625139461729 
H  -0.4643818839243523  -5.208017193791143  2.2706174994514323 
C  1.1808827894092278  -1.7561796631982782  -2.8504030382023324 
H  0.9155463211129056  -0.94750684528619  -2.327959967464332 
C  2.628395959752749  -1.575824467760081  -3.2538857208053904 
H  3.1817115313250497  -1.4749685127970524  -2.4511363423539647 
H  2.714897492889279  -0.7761243209944273  -3.8122611232256793 
H  2.9271304543876844  -2.3615022641346117  -3.7598481719806602 
C  0.28095256087101483  -1.8171372290497299  -4.0798177399725395 
H  0.5426283031831813  -2.579181124764952  -4.63928502846094 
H  0.3732727426902407  -0.9884577326666433  -4.594515910071421 
H  -0.6514880546684458  -1.9238808758174926  -3.796768994405435 
C  2.2042688190814186  1.9123113917159251  -1.604047248595572 
C  3.5738833828949446  2.094094761832358  -1.7501222051728185 
H  4.148041808381743  2.0327151632034353  -0.9957114302532872 
C  4.094696761903626  2.3660001310049914  -3.0049954634984193 
H  5.030379953185117  2.4920890224713075  -3.1088634422122925 
C  3.270249790379892  2.456900902067648  -4.101120730502882 
H  3.6382320285109375  2.6451679837389657  -4.956810410456438 
C  1.9107549717902146  2.274860597132945  -3.9600602271463967 
H  1.3433341907692031  2.3368307225575338  -4.720341728184267 
C  1.37175943362246  2.000441988012156  -2.7157630131321873 
H  0.43504944774237586  1.8738656041613921  -2.6197434765584946 
C  0.985915773856785  3.0863006821597967  0.7772071651777821 
C  1.0978136114931567  4.286740143913606  0.10241832220796859 
H  1.429603162066949  4.3057908789896455  -0.7858976877924857 
C  0.7210083440262972  5.469295757113967  0.7323388426687281 
H  0.7934973474642193  6.29720268100769  0.27329619786390297 
C  0.2443476743563764  5.434889107981297  2.0204983780079426 
H  -0.014466879098206542  6.243492217142601  2.4486994741938104 
C  0.13681764203658187  4.231721139118765  2.702592529025607 
H  -0.1838812611217433  4.218519749359626  3.5962893102783515 
C  0.4945904186485164  3.06152029412422  2.082318458400831 
H  0.40752525135985995  2.2349794422881653  2.541706493607591 
Br  -1.654629867976521  1.654629867976521  0.0 
C  -1.352040782177733  -1.3199206589279684  -0.4819701001757076 
C  -1.6380700204479186  -1.599217458033982  -1.8139382277462257 
H  -1.1579680913617836  -1.159339363685303  -2.503515938957912 
C  -2.63068216563725  -2.52632649780156  -2.142289956238523 
H  -2.8368222554424674  -2.694399528648736  -3.0538898079700485 
C  -3.3101544432602585  -3.1961573187854975  -1.1619874135498987 
H  -3.9960123560788676  -3.811990145619169  -1.3868663427944008 
C  -2.9974710358883443  -2.9701089012107795  0.12423560353005347 
H  -3.438659168087169  -3.468581175155742  0.8017084178296768 
C  -2.0389854250767776  -2.015940632791841  0.4912562833419403 
H  -1.8619130127668426  -1.8492165108145995  1.4101568590026907 
