17
unq_CSD-OZIZII-01-a
N  -1.5879999999999992  1.4455999999999998  0.020199999999999996 
S  -2.1338  2.2276  -1.2843999999999998 
S  -2.3842  1.7925000000000004  1.3842000000000003 
O  -2.134899999999999  1.3201  -2.3931999999999998 
O  -1.4832999999999998  3.4892000000000003  -1.4958999999999998 
O  -2.5625999999999998  0.5967000000000002  2.1593999999999998 
O  -1.8328999999999995  2.9192  2.0920000000000005 
C  -3.7842  2.5323  -0.7119 
C  -3.9099999999999997  2.2927999999999997  0.6442000000000001 
C  -5.134399999999999  2.4204999999999997  1.3002000000000002 
H  -5.2223999999999995  2.2377000000000002  2.2278000000000002 
C  -6.2245  2.8301  0.5286 
H  -7.074  2.9295999999999998  0.9422000000000001 
C  -6.0981  3.093  -0.8245999999999998 
H  -6.856599999999999  3.3779000000000003  -1.3198999999999999 
C  -4.8666  2.9461000000000004  -1.4711999999999998 
H  -4.775799999999999  3.1239  -2.4006 
