15
unq_CSD-PAHWOL-01-a
C  0.23580000000000023  -2.6444  -2.8681 
H  0.9878999999999998  -3.2503  -2.6982999999999997 
H  0.5741000000000005  -1.7355  -3.0081999999999987 
H  -0.2474999999999996  -2.9403  -3.6685 
C  0.2998000000000003  -4.2835  1.360100000000001 
H  0.9472000000000005  -4.7442  1.9347999999999992 
H  -0.0519999999999996  -4.9112  0.6951 
H  -0.4365999999999999  -3.9409  1.9079000000000015 
N  -0.04889999999999972  -2.0937  -0.21649999999999991 
O  -1.8731999999999998  -1.6712000000000002  -1.7400000000000002 
O  -1.2961999999999998  -4.0181000000000004  -1.2899999999999991 
O  1.609  -2.0535  1.5528000000000013 
O  2.0578000000000003  -3.5132000000000003  -0.3722999999999992 
S  -0.855  -2.6599000000000004  -1.4847000000000001 
S  1.0925000000000002  -2.9428  0.539200000000001 
