49
unq_CSD-TERHAA-01-d
P  3.319600000000001  -0.1732999999999998  0.05569999999999986 
N  1.7093000000000007  -0.2704  0.04369999999999985 
C  4.133100000000001  -1.7163  -0.44810000000000016 
C  3.5176999999999996  -2.8362  -1.0260000000000002 
C  4.3535  -3.7812  -1.6341999999999999 
H  3.9680999999999997  -4.513199999999999  -2.0595 
C  5.731  -3.6623  -1.6254 
H  6.254  -4.2877  -2.0721 
C  6.3225  -2.626  -0.9617 
H  7.2483  -2.5787999999999998  -0.8896999999999999 
C  5.5342  -1.6589  -0.4064000000000001 
H  5.9405  -0.9351  0.013799999999999812 
C  2.0777  -3.2081  -0.9740000000000002 
C  1.4405000000000001  -3.3945  0.24219999999999997 
H  1.8573000000000004  -3.1191999999999998  1.0270000000000001 
C  0.1960999999999995  -3.9821  0.3027000000000002 
H  -0.2218  -4.1014  1.1242 
C  -0.4300999999999995  -4.3921  -0.8494000000000002 
H  -1.2599999999999998  -4.8095  -0.8090000000000002 
C  0.1769999999999996  -4.1819  -2.0532000000000004 
H  -0.25569999999999915  -4.435  -2.8368 
C  1.4187000000000012  -3.5999  -2.1226000000000003 
H  1.8201  -3.4677  -2.9516 
C  3.7653  1.0750000000000002  -1.2732999999999999 
C  3.1493  2.4324000000000003  -0.9098999999999999 
H  3.373800000000001  3.0772000000000004  -1.585 
H  3.4946  2.7230999999999996  -0.06320000000000014 
H  2.1950000000000003  2.3467000000000002  -0.8531 
C  3.1180000000000003  0.5451000000000001  -2.5529 
H  3.3087999999999997  1.1428000000000003  -3.2797 
H  2.1683000000000003  0.4849999999999999  -2.4305000000000003 
H  3.4708000000000006  -0.3256999999999999  -2.7535 
C  5.272500000000001  1.2712000000000003  -1.5118 
H  5.4046  1.9237000000000002  -2.2033 
H  5.6653  0.4365000000000001  -1.7781 
H  5.6875  1.5751999999999997  -0.7017000000000002 
C  3.8160000000000007  0.24140000000000006  1.8194999999999997 
C  2.742800000000001  1.1633000000000004  2.4238999999999997 
H  2.982100000000001  1.3851000000000004  3.3262 
H  1.8947000000000003  0.7142  2.4176 
H  2.6815999999999995  1.9684  1.9015000000000004 
C  5.174800000000001  0.9563999999999999  1.9583000000000004 
H  5.350900000000001  1.1316000000000002  2.8857999999999997 
H  5.1508  1.7876000000000003  1.4763000000000002 
H  5.8689  0.3992  1.5998999999999999 
C  3.8160000000000007  -1.0581  2.6056 
H  4.066000000000001  -0.8811  3.5153999999999996 
H  4.444000000000001  -1.6694  2.2144000000000004 
H  2.9368  -1.4439  2.5854 
