19
unq_CSD-PAKVOP-01-b
N  1.8807999999999998  0.22970000000000113  -0.33470000000000066 
C  2.9581999999999997  0.7706999999999997  0.2889999999999997 
C  3.0189  0.7910000000000004  1.6766999999999999 
H  2.2866  0.4442000000000004  2.1697999999999995 
C  4.1112  1.2990000000000013  2.3713999999999995 
H  4.1042  1.2894000000000005  3.3225 
C  5.1981  1.8123000000000005  1.7159999999999997 
H  5.9344  2.1601999999999997  2.2047 
C  5.2105  1.816600000000001  0.3032999999999997 
C  6.2949  2.3694000000000006  -0.41630000000000056 
H  7.0357  2.7279999999999998  0.058099999999999596 
C  6.2972  2.3971  -1.7671000000000001 
H  7.037800000000001  2.7749000000000006  -2.2250000000000005 
C  5.2262  1.8773999999999997  -2.5054000000000007 
H  5.2378  1.8924000000000003  -3.4539 
C  4.1552999999999995  1.3449000000000009  -1.8240000000000007 
H  3.42  1.0023  -2.3203000000000005 
C  4.1043  1.2873  -0.41690000000000005 
H  1.9730999999999999  0.11650000000000027  -1.0977000000000006 
