66
unq_CSD-LIPBAN-01-a
Si  4.285100000000001  -0.06850000000000023  0.41610000000000014 
N  1.5434999999999999  -1.1799  0.7082000000000006 
N  2.7243000000000004  -2.1526999999999994  -2.3758999999999997 
C  2.7938  -1.1353999999999997  -0.03730000000000011 
C  2.788800000000001  -1.7553999999999998  -1.2176999999999998 
C  1.4386  -2.1647  1.8342 
C  -0.013700000000000045  -2.1372999999999998  2.3132 
C  1.7702999999999998  -3.5827  1.3434 
C  2.3728000000000007  -1.8084999999999996  2.9806 
C  3.125800000000001  -3.5004999999999997  -2.8922 
C  3.8402000000000003  -4.3294  -1.8545999999999996 
C  4.0233  -3.2230999999999996  -4.0777 
C  1.8469000000000007  -4.1667  -3.3457 
C  5.1110999999999995  0.6508000000000003  -1.1632999999999996 
C  4.114400000000001  1.1971000000000007  -2.1822999999999997 
C  5.9348  -0.4194999999999993  -1.8612999999999995 
C  6.072  1.8050999999999995  -0.7607999999999997 
C  3.681  1.3049999999999997  1.5591 
C  2.9273  2.3566000000000003  1.0785 
C  2.4898  3.4047  1.8767000000000005 
C  2.7977999999999996  3.3841  3.2269000000000005 
C  3.525900000000001  2.361700000000001  3.7449000000000003 
C  3.970200000000001  1.313600000000001  2.928 
C  5.6648000000000005  -1.0480999999999998  1.2772000000000006 
C  5.7809  -2.4199  1.0904000000000007 
C  6.881200000000001  -3.1202999999999994  1.5744000000000007 
C  7.8854  -2.4832  2.2418000000000005 
C  7.7809  -1.1234000000000002  2.4609000000000005 
C  6.678400000000001  -0.4007000000000005  1.9905 
H  -0.6067999999999998  -2.3685  1.5676000000000005 
H  -0.23329999999999984  -1.2416  2.6409000000000002 
H  -0.13049999999999962  -2.7881  3.0367000000000006 
H  1.1736000000000004  -3.8208  0.6046000000000005 
H  1.6503000000000005  -4.2181  2.0788 
H  2.700400000000001  -3.6117999999999997  1.0343 
H  3.3004000000000007  -1.8273000000000001  2.6647000000000007 
H  2.2618  -2.4574999999999996  3.7058 
H  2.159  -0.9110999999999994  3.3101000000000003 
H  4.662400000000001  -3.8704  -1.5810999999999997 
H  4.064700000000001  -5.204599999999999  -2.2333 
H  3.2589999999999995  -4.4493  -1.0749999999999997 
H  3.5359000000000007  -2.6836  -4.736599999999999 
H  4.2954  -4.0708  -4.487 
H  4.817000000000001  -2.7333  -3.7787999999999995 
H  1.4066  -3.6067  -4.018199999999999 
H  1.2507000000000001  -4.2866  -2.5779999999999994 
H  2.0551000000000004  -5.0419  -3.7362999999999995 
H  3.5652  1.8925  -1.7627999999999995 
H  3.5369  0.4710000000000001  -2.4964999999999997 
H  4.6003  1.5791000000000004  -2.9431999999999996 
H  6.586000000000001  -0.7928999999999995  -1.2312999999999996 
H  6.4064000000000005  -0.023899999999999366  -2.6239 
H  5.3417  -1.1337000000000002  -2.1771999999999996 
H  5.5645  2.5107  -0.3073999999999999 
H  6.4958  2.1715999999999998  -1.5640999999999998 
H  6.7627  1.459200000000001  -0.15619999999999967 
H  2.697  2.3634000000000004  0.15800000000000036 
H  1.9889000000000001  4.1206  1.5030999999999999 
H  2.4989  4.088000000000001  3.7907 
H  3.7368999999999994  2.3583  4.6721 
H  4.4712000000000005  0.6012000000000004  3.3084000000000007 
H  5.097700000000001  -2.8873999999999995  0.6233000000000004 
H  6.934400000000001  -4.0588  1.4368000000000007 
H  8.6449  -2.9645  2.5492 
H  8.466999999999999  -0.6713000000000005  2.9398 
H  6.6179  0.5327000000000002  2.1569000000000003 
