31
unq_CSD-LIZMOW-01-a
N  -0.8768000000000002  4.8709  -1.6457000000000006 
H  -1.1955999999999998  5.099099999999999  -2.4112 
C  -0.5582000000000003  5.9014  -0.7833000000000006 
O  -0.6692999999999998  7.068599999999999  -1.2322000000000006 
N  -0.10580000000000034  5.64  0.4502999999999995 
C  -0.039699999999999847  4.329  0.7436999999999996 
C  -0.32450000000000045  3.2489  -0.08190000000000008 
C  -0.7391000000000005  3.511  -1.4110000000000005 
O  -0.9573  2.6978999999999997  -2.3294000000000006 
N  -0.08929999999999971  2.0561  0.6031999999999993 
C  0.2831999999999999  2.4132  1.7986000000000004 
H  0.49150000000000027  1.814  2.4795 
N  0.33969999999999967  3.7763999999999998  1.9445999999999994 
C  0.7960000000000003  4.5036  3.1372 
H  1.2434000000000003  5.3351  2.873899999999999 
O  1.6941999999999995  3.6741  3.8249999999999993 
C  -0.29800000000000004  4.7974000000000006  4.1607 
H  -0.8974000000000002  4.024399999999999  4.2248 
O  -1.0491000000000001  5.9463  3.8590999999999998 
H  -1.5971000000000002  5.7931  3.2135999999999996 
C  0.4855999999999998  4.9408  5.4557 
H  -0.060100000000000264  4.643299999999999  6.2143999999999995 
O  0.8877999999999995  6.2746  5.646699999999999 
H  1.6358999999999995  6.4220999999999995  6.0397 
C  1.6494  3.9698  5.230499999999999 
H  2.4875  4.4007  5.5007 
C  1.4814999999999996  2.6922999999999995  5.985099999999999 
H  1.3804999999999996  2.8870999999999993  6.9308 
H  0.6783000000000001  2.2383999999999995  5.684899999999999 
O  2.6222000000000003  1.8392  5.809099999999999 
H  2.4372  1.0697  5.513 
