22
unq_CSD-LIZRUK-01-a
C  -1.6054000000000013  1.2935999999999996  -2.0343 
C  -0.7847000000000008  0.9677999999999987  -3.122 
H  0.0045999999999999375  0.45289999999999964  -3.0029000000000003 
C  -1.1574000000000009  1.4184  -4.370299999999999 
H  -0.6142000000000003  1.2073999999999998  -5.1206 
C  -2.323500000000001  2.185599999999999  -4.5609 
H  -2.555900000000001  2.4755999999999982  -5.4342999999999995 
C  -3.128800000000001  2.5206  -3.5 
H  -3.902100000000001  3.0592999999999986  -3.6279000000000003 
C  -2.786100000000001  2.051499999999999  -2.2250999999999994 
C  -3.3812000000000006  2.1762999999999995  -0.9222000000000001 
C  -4.545600000000001  2.772499999999999  -0.44899999999999984 
H  -5.139500000000001  3.2177999999999987  -1.0413999999999994 
C  -4.819000000000001  2.704299999999998  0.9166000000000007 
C  -3.922500000000001  2.0676999999999985  1.8047000000000004 
H  -4.107800000000001  2.0675999999999988  2.7353000000000005 
C  -2.778600000000001  1.4460999999999995  1.338000000000001 
H  -2.1991000000000005  0.9901999999999997  1.9374000000000002 
C  -2.4883000000000006  1.5015999999999998  -0.03190000000000026 
C  -6.036000000000001  3.2901000000000007  1.4266000000000005 
N  -1.415000000000001  0.9723999999999986  -0.6974999999999998 
N  -7.017500000000001  3.7360999999999986  1.8177000000000003 
