10
unq_CSD-LUPROD-01-a
O  -6.236700000000001  2.0068  2.1349 
N  -2.0371  0.3282  0.786 
N  -5.751  -1.4959  2.2218 
N  -4.3453  2.983  1.4223 
H  -4.712400000000001  3.758  1.4881 
H  -3.5316  2.9142  1.1522 
C  -3.1060000000000003  0.4429  1.1789 
C  -5.1558  -0.5532  1.9669 
C  -4.4192  0.6054  1.6412 
C  -5.0375000000000005  1.8895  1.7383 
