82
unq_CSD-LUWCOW-01-b
N  1.7828999999999997  1.9175  0.35029999999999983 
N  2.5433000000000003  1.2600000000000002  -0.3714000000000004 
N  1.9908000000000001  0.1431  -0.8092999999999999 
C  2.350299999999999  3.1003000000000003  0.9272999999999998 
C  2.097199999999999  3.2878000000000003  2.3030999999999997 
C  2.6701999999999995  4.3987  2.9214 
H  2.5795999999999992  4.5047999999999995  3.8611000000000004 
C  3.3568  5.325900000000001  2.2203999999999997 
H  3.7315000000000005  6.074200000000001  2.6733000000000002 
C  3.534699999999999  5.2004  0.8464999999999998 
H  3.9918999999999993  5.878300000000001  0.36350000000000016 
C  3.0259  4.0694  0.16420000000000012 
C  1.2980999999999998  2.2196000000000002  3.0229 
C  -0.06890000000000018  2.3371999999999997  3.1338 
C  -0.8355000000000006  1.2982  3.7089 
H  -1.7784000000000004  1.3922000000000003  3.7897 
C  -0.22310000000000052  0.15600000000000014  4.146800000000001 
C  1.1598000000000006  0.08150000000000013  4.0809999999999995 
H  1.5838999999999999  -0.7061999999999999  4.400499999999999 
C  1.9605999999999995  1.0977000000000001  3.5698000000000008 
C  2.7134  -0.7408000000000001  -1.5779999999999998 
C  2.3618000000000006  -2.1295  -1.4952999999999999 
C  3.0927000000000007  -3.0395  -2.2696 
H  2.8938000000000006  -3.9674  -2.2396000000000003 
C  4.0924  -2.5744  -3.059 
H  4.571  -3.2063  -3.5777 
C  4.452500000000001  -1.2557  -3.1643 
H  5.1617999999999995  -0.9855999999999998  -3.7337 
C  3.7182999999999993  -0.29380000000000006  -2.3805 
H  3.9296000000000006  0.6313  -2.4237 
C  1.2586999999999993  -2.6235  -0.6194999999999999 
C  0.033199999999999896  -3.082  -1.1702 
C  -1.0046  -3.5008  -0.2925000000000004 
H  -1.8449999999999998  -3.7649  -0.6476999999999999 
C  -0.8002000000000002  -3.5267  1.0606999999999998 
C  0.4142999999999999  -3.0987  1.6058000000000003 
H  0.5302999999999995  -3.1136  2.5473999999999997 
C  1.4848  -2.6372  0.7788000000000004 
C  3.2325999999999997  3.9705999999999997  -1.2867000000000002 
C  2.1312999999999995  4.1251999999999995  -2.1869 
C  2.3466000000000005  4.0123999999999995  -3.5477 
H  1.6020000000000003  4.099399999999999  -4.1265 
C  3.5424000000000007  3.7906999999999997  -4.1002 
C  4.639899999999999  3.6330000000000005  -3.2507 
H  5.4979  3.4755  -3.6266 
C  4.5023  3.7036000000000002  -1.8486000000000002 
C  -0.7633999999999999  3.5593999999999997  2.5774999999999997 
H  -0.09640000000000004  4.183  2.2241 
H  -1.2752  3.9985000000000004  3.2897999999999996 
H  -1.3730000000000002  3.2902  1.8575999999999997 
C  -1.1025  -0.9908999999999999  4.6881 
H  -2.0442  -0.7254999999999998  4.650499999999999 
H  -0.8532000000000002  -1.1839  5.6165 
H  -0.9657  -1.7931  4.1393 
C  3.4543  1.0039000000000002  3.4814999999999996 
H  3.7546999999999997  0.17689999999999984  3.91 
H  3.8557000000000006  1.7734  3.9362999999999992 
H  3.7242999999999995  1.0023000000000004  2.5399000000000003 
C  -0.25539999999999985  -3.0918  -2.6324 
H  0.5411000000000001  -2.7872  -3.121 
H  -1.0030999999999999  -2.4919000000000002  -2.8241 
H  -0.48050000000000015  -4.0016  -2.9143 
C  -1.9407000000000005  -3.969  1.9703999999999997 
H  -1.6461000000000006  -3.9298  2.9044999999999996 
H  -2.1983000000000006  -4.8878  1.7485999999999997 
H  -2.7082000000000006  -3.3741  1.8445 
C  2.7867999999999995  -2.19  1.3971999999999998 
H  3.401  -1.8983  0.6924000000000001 
H  3.1868999999999996  -2.9349  1.8914999999999997 
H  2.616999999999999  -1.4445  2.0117000000000003 
C  0.7978999999999994  4.389799999999999  -1.6175000000000002 
H  0.14649999999999963  4.466100000000001  -2.3429 
H  0.8236999999999997  5.2265  -1.1099999999999999 
H  0.5474999999999994  3.6531  -1.0236 
C  3.6854999999999993  3.6649999999999996  -5.6338 
H  2.818199999999999  3.8078  -6.0586 
H  4.0206  2.7703  -5.8575 
H  4.324199999999999  4.339  -5.9552 
C  5.678699999999999  3.4872  -0.9578000000000002 
H  5.399699999999999  3.5741  -0.02179999999999982 
H  6.3668  4.1541999999999994  -1.1589 
H  6.0402000000000005  2.5883999999999996  -1.1080999999999999 
