11
unq_CSD-MEDNUH-01-d
N  -0.391  -2.1790000000000003  -0.007200000000000095 
C  -0.9638000000000009  -2.7601  -1.0931999999999995 
C  -1.2346000000000004  -4.0906  -1.0868999999999995 
C  -0.9326000000000008  -4.84  0.0034000000000000696 
C  -0.37729999999999997  -4.2552  1.0979 
C  -0.11270000000000024  -2.9229000000000003  1.0937000000000001 
O  -1.2433000000000014  -2.0181  -2.1876999999999995 
H  -1.6395  -4.5012  -1.8548999999999998 
H  -1.111600000000001  -5.7831  0.0030000000000001137 
H  -0.17260000000000097  -4.7833000000000006  1.8719000000000001 
H  0.27139999999999986  -2.5079000000000002  1.8692000000000002 
