16
unq_CSD-AXILUO-01-e
N  2.0386999999999986  -0.06430000000000002  -0.6020000000000003 
N  2.5191  -0.26659999999999995  -1.8196 
N  3.8518999999999988  -0.3054  -1.762 
C  4.1334  -0.12739999999999996  -0.4655 
N  3.0406999999999993  0.029900000000000038  0.2835000000000001 
C  5.4878  -0.11699999999999999  0.09430000000000005 
C  5.696200000000001  -0.3171999999999999  1.4540999999999995 
H  4.965399999999999  -0.489  2.0187999999999997 
C  6.964199999999998  -0.2653  1.9775 
N  8.0227  -0.05190000000000006  1.1665 
O  9.252199999999998  -0.008999999999999897  1.6887999999999996 
C  7.858899999999998  0.13240000000000007  -0.15600000000000014 
H  8.6096  0.27580000000000005  -0.7031000000000001 
C  6.605499999999999  0.11160000000000014  -0.7130000000000001 
H  6.499600000000001  0.25160000000000005  -1.6367 
H  7.095600000000001  -0.3789  2.9012000000000002 
