19
unq_CSD-AYIGEW-01-b
O  4.4572  1.5145999999999997  -4.608700000000001 
N  3.6912  -0.6623000000000001  -4.351000000000001 
N  2.0743  -1.2475  -2.6637000000000004 
N  2.7001  2.2612000000000005  -2.3129 
N  1.4507999999999999  0.6726999999999999  -1.2757000000000005 
C  2.875  -1.5034999999999998  -3.6773000000000002 
H  2.879  -2.4045  -3.9778000000000002 
C  2.1223  0.05109999999999992  -2.2969 
C  2.8931  1.0280000000000005  -2.9171 
C  3.6955  0.6016000000000004  -3.9778000000000002 
C  5.2185  1.0945  -5.7549 
H  4.6338  0.6311999999999998  -6.4072000000000005 
H  5.9407  0.4754000000000005  -5.4823 
C  1.8340999999999998  1.9405000000000001  -1.3538000000000006 
H  1.5038  2.5947000000000005  -0.7496 
C  5.7955  2.3384  -6.3623 
H  6.253  2.1107000000000005  -7.1985 
H  6.4361  2.7382999999999997  -5.7378 
H  5.0755  2.9767  -6.546200000000001 
