20
unq_CSD-AYIGIA-01-b
O  4.5717  -4.7448  -0.23039999999999994 
N  3.7607  -3.7148  -2.1439 
C  2.9084000000000003  -2.8087  -2.6779 
H  2.9138  -2.7496  -3.6266999999999996 
N  2.0694  -1.9966999999999997  -2.0593 
C  2.1635  -2.1109  -0.7266999999999999 
C  2.9847  -2.9936000000000003  -0.036499999999999755 
C  3.7843  -3.8212  -0.8260999999999998 
N  2.8273  -2.8524000000000003  1.3279 
C  5.3108  -5.6239  -1.0937 
H  6.068300000000001  -5.1332  -1.5004 
H  4.7241  -5.9464  -1.8226 
C  1.9304  -1.8920000000000003  1.4025000000000003 
H  1.6171  -1.5638000000000005  2.2369 
N  1.4753  -1.3937999999999997  0.2221000000000002 
C  5.8234  -6.7775  -0.31799999999999984 
H  6.3426  -7.5204  -0.8629 
C  5.750100000000001  -6.9692  0.9729000000000001 
H  5.3283000000000005  -6.3224  1.5268000000000002 
H  6.1189  -7.7557  1.3578000000000001 
