49
unq_CSD-AZIGEY-01-a
N  -0.8253000000000004  1.8923000000000005  0.1524000000000001 
H  -1.6314000000000002  1.6875000000000018  0.4375 
N  -0.8662000000000001  5.210199999999999  -1.6617999999999995 
N  -6.1295  4.6061  1.1315000000000008 
N  -0.6892  5.1754000000000016  1.8687000000000005 
N  -3.0917000000000003  4.6076999999999995  0.1504999999999992 
C  -4.0336  3.4849000000000014  0.2927999999999997 
H  -3.9074  3.0983  1.1944 
H  -3.7723  2.7891999999999992  -0.3620000000000001 
C  -5.5183  3.7566000000000006  0.10989999999999966 
H  -5.652  4.183400000000001  -0.7743000000000002 
H  -5.996  2.889899999999999  0.09600000000000009 
C  -6.2597000000000005  3.950000000000001  2.4137000000000004 
H  -6.7744  3.1235000000000017  2.3064999999999998 
H  -6.7249  4.545600000000002  3.0388 
H  -5.3701  3.739300000000002  2.7645999999999997 
C  -7.4359  5.0504000000000016  0.7065999999999999 
H  -7.3553999999999995  5.541100000000002  -0.13889999999999958 
H  -7.8197  5.638499999999999  1.3895 
H  -8.0192  4.2737  0.5780999999999992 
C  -3.2744  5.326700000000001  -1.1242 
H  -4.022  5.969099999999999  -1.0309000000000008 
H  -3.5174000000000003  4.677999999999999  -1.8315000000000001 
C  -2.0426  6.0633  -1.5343999999999998 
H  -2.2096  6.507099999999999  -2.4033999999999995 
H  -1.8542  6.7692  -0.8667999999999996 
C  -0.9748000000000001  4.341299999999999  -2.8256999999999994 
H  -1.7735000000000003  3.778699999999999  -2.7416 
H  -0.1795  3.7705  -2.8839000000000006 
H  -1.0443000000000002  4.886899999999999  -3.636799999999999 
C  0.3388  6.033400000000002  -1.7800999999999991 
H  0.26180000000000003  6.6149000000000004  -2.5639000000000003 
H  1.1223  5.451500000000001  -1.8803999999999998 
H  0.4413  6.5809000000000015  -0.9740000000000002 
C  -3.0867000000000004  5.524600000000001  1.3107000000000006 
H  -3.9855  5.532100000000002  1.7247000000000003 
H  -2.8838  6.4422000000000015  1.0013000000000005 
C  -2.0678  5.107999999999999  2.3361 
H  -2.1629  5.688599999999999  3.1323000000000008 
H  -2.2629  4.178500000000001  2.6189 
C  -0.23130000000000006  6.555999999999999  1.8187999999999995 
H  -0.8162000000000003  7.072799999999999  1.2264999999999997 
H  0.6868999999999996  6.583900000000002  1.4774999999999991 
H  -0.2567000000000004  6.940399999999999  2.7200000000000006 
C  0.18299999999999983  4.4703  2.805300000000001 
H  0.016599999999999504  4.797500000000001  3.7143999999999995 
H  1.1189  4.6318  2.5662000000000003 
H  -0.004100000000000215  3.5092000000000017  2.7653 
Li  -0.9771000000000001  3.903900000000002  0.06920000000000037 
