49
unq_CSD-AZIGIC-01-a
Na  3.9657  -0.8140999999999998  -1.6538000000000004 
N  1.7624999999999993  -0.3714000000000004  -0.8204000000000002 
H  1.4145000000000003  -0.40720000000000045  -1.6282000000000005 
N  5.6029  -1.5250000000000004  0.1805999999999992 
N  3.894  -2.6700999999999997  -3.4248000000000003 
N  4.830400000000001  1.2961  -2.7930000000000006 
N  6.406600000000001  -1.2142999999999997  -2.6857 
C  5.9382  -0.29220000000000024  0.8945999999999996 
H  6.3186  0.35630000000000006  0.26529999999999987 
H  6.5921  -0.4878999999999998  1.5969999999999995 
H  5.1272  0.0827  1.298 
C  4.9854  -2.4608999999999996  1.1195999999999993 
H  4.146800000000001  -2.0806000000000004  1.4556999999999993 
H  5.594900000000001  -2.6220999999999997  1.8693 
H  4.7989  -3.3079  0.6621999999999995 
C  6.799799999999999  -2.1167  -0.40310000000000024 
H  6.5863  -3.0364000000000004  -0.7029000000000005 
H  7.4952000000000005  -2.1847000000000003  0.29859999999999953 
C  7.3604  -1.3405000000000005  -1.5721000000000007 
H  7.6196  -0.4370000000000003  -1.2639000000000005 
H  8.178  -1.7956000000000003  -1.8973000000000004 
C  6.771700000000001  -0.07850000000000001  -3.5236000000000005 
H  6.3902  -0.20889999999999986  -4.428100000000001 
H  7.7575  -0.04689999999999994  -3.6132000000000004 
C  6.2767  1.2601000000000004  -2.9584000000000006 
H  6.7072  1.4197999999999995  -2.0821000000000005 
H  6.550800000000001  1.9895000000000005  -3.5692000000000004 
C  4.1457  1.4086000000000007  -4.0831 
H  4.3542000000000005  0.6239999999999997  -4.633100000000001 
H  4.445500000000001  2.2192  -4.5429 
H  3.1776999999999997  1.4546000000000001  -3.9353000000000002 
C  4.4496  2.4433999999999996  -1.9490000000000007 
H  3.4902999999999995  2.4025000000000007  -1.7567000000000004 
H  4.6531  3.2775000000000007  -2.4224000000000006 
H  4.954000000000001  2.4128  -1.1098000000000008 
C  6.3794  -2.4541000000000004  -3.4775000000000005 
H  6.4963  -3.2277000000000005  -2.8712000000000004 
H  7.1416  -2.4494  -4.110900000000001 
C  5.0885  -2.6273999999999997  -4.260000000000001 
H  5.0021  -1.8807  -4.902800000000001 
H  5.1424  -3.4682000000000004  -4.7812 
C  3.8271999999999995  -3.9254  -2.6796 
H  4.6249  -4.0129  -2.1164000000000005 
H  3.7867999999999995  -4.676  -3.3076000000000003 
H  3.0268999999999995  -3.9272  -2.1148000000000007 
C  2.6997999999999998  -2.5711000000000004  -4.2677000000000005 
H  1.9021000000000008  -2.5242000000000004  -3.7003000000000004 
H  2.6424000000000003  -3.3588000000000005  -4.847700000000001 
H  2.7554  -1.7626999999999997  -4.8197 
