21
unq_CSD-BENLAJ-01-d
N  -0.637  -0.3613  -2.0129 
C  0.1601  -0.041  -3.0511 
H  1.0608  0.2011  -2.8713 
C  -0.27  -0.0478  -4.3658 
H  0.3239  0.1907  -5.0685 
C  -1.586  -0.4095  -4.6442 
C  -2.3993  -0.7929  -3.5786 
H  -3.2917  -1.078  -3.7329 
C  -1.8892  -0.7521  -2.2928 
H  -2.4523  -1.0136  -1.5744 
C  -2.117  -0.3695  -6.031 
N  -1.2261  -0.1115  -7.0085 
C  -1.7257  -0.0618  -8.2468 
H  -1.1351  0.1294  -8.9652 
C  -3.064  -0.2757  -8.5326 
C  -3.8886  -0.5531  -7.4455 
H  -4.8113  -0.7172  -7.6009 
N  -3.4259  -0.597  -6.1886 
C  -3.5909  -0.1864  -9.945 
O  -4.7356  -0.6528  -10.1773 
O  -2.8352  0.3661  -10.786 
