18
unq_CSD-BEPQES-01-d
N  -0.15839999999999987  -0.6875  2.2398 
C  -1.1517999999999997  -0.5794000000000001  3.026 
C  -1.2176999999999998  -1.1427999999999998  4.3225999999999996 
O  0.9655000000000005  -0.9350999999999998  2.7528999999999995 
O  -1.1713999999999998  1.6569000000000003  2.1129 
N  -1.2205999999999997  -1.6364  5.368199999999999 
C  -1.7197  0.7849000000000004  2.9212 
C  -3.9991  0.6197999999999997  3.9254 
H  -3.8638  -0.30200000000000005  3.6963999999999997 
C  -2.9869999999999997  1.4862000000000002  3.6384999999999996 
C  -3.021  2.8575999999999997  3.9639999999999995 
H  -2.2999  3.4579000000000004  3.7626 
C  -4.2242999999999995  3.2929000000000004  4.468799999999999 
H  -4.3024  4.2275  4.6757 
C  -5.1645  2.3711  4.766799999999999 
H  -5.9655  2.7039  5.1778 
C  -5.2164  1.0452000000000004  4.512999999999999 
H  -5.9719  0.49319999999999986  4.7254 
