20
unq_CSD-BOFSOF-01-a
N  -0.6503999999999994  0.04689999999999994  -1.8766999999999996 
N  -3.0493999999999994  2.7462999999999997  -2.4825 
N  -2.3061  1.7122000000000002  -4.4697 
N  -0.7355  -0.11770000000000014  -4.1547 
O  -2.3212  2.0838  -0.4028999999999998 
O  -3.7622  3.4923  -4.5358 
Cl  0.8781999999999996  -1.8725  -2.914599999999999 
C  -1.5329999999999995  1.0254999999999996  -2.351 
C  -2.2577  1.9024  -1.6218999999999992 
C  -3.0737999999999994  2.6838999999999995  -3.8878999999999997 
C  -1.5377999999999998  0.8512999999999997  -3.6729999999999996 
C  -0.2298  -0.5703  -2.9754999999999994 
C  -3.8983  3.7879999999999994  -1.8819999999999997 
H  -3.4645  4.640499999999999  -1.9623999999999997 
H  -4.0418  3.5884  -0.9537999999999993 
H  -4.742699999999999  3.8151  -2.3373999999999997 
C  -2.3709  1.5351  -5.936 
H  -3.2443999999999997  1.7808000000000002  -6.2494 
H  -2.1985  0.6167999999999996  -6.1562 
H  -1.7123  2.0937  -6.3553999999999995 
