19
unq_CSD-BOJMET-01-a
N  -0.6046  -1.2048  -1.3896 
O  -1.6243  -0.7961  -4.6062 
C  -1.4702  -2.6689  -3.3066 
C  -2.7967  -2.7344  -5.3894 
C  -0.9634  -1.8468  -2.2681 
C  -2.0036  -2.0823  -4.4605 
C  -1.3643  -4.0633  -3.1081 
N  -3.3284  -1.8958  -7.7556 
C  -3.0684  -2.2349  -6.6952 
C  -3.408  -3.9753  -5.1085 
C  -2.483  0.1986  -5.2232 
N  -3.9618  -4.9671  -4.9253 
N  -1.2594  -5.1904  -2.9046 
C  -2.1213  1.5196  -4.6621 
H  -3.3896  -0.1437  -4.914 
H  -1.0838  1.6576  -4.8128 
H  -2.6943  2.1909  -5.0152 
H  -2.0235  0.3521  -6.2297 
H  -2.0866  1.3298  -3.6658 
