12
unq_CSD-BONRIF-01-a
N  0.9259  1.7174  0.2641 
C  1.8681  1.8968  1.2448000000000006 
C  2.6584999999999996  2.9859  1.4009 
C  2.5596  4.0596  0.5162000000000004 
C  1.584  3.9325  -0.5005999999999995 
C  0.7766000000000002  2.8148  -0.6265999999999998 
H  1.9127  1.2115  1.6325000000000003 
H  3.4122  2.9336  1.6806 
H  3.5235  4.5133  0.3001000000000005 
H  2.6264  5.1546  0.9483000000000006 
H  1.5983999999999998  4.5726  -1.1284 
H  0.026799999999999935  2.7673  -1.2004000000000001 
