17
unq_CSD-BOVKED-01-a
S  1.6964999999999995  6.1232  2.9167999999999994 
O  1.7115  6.4395  4.317799999999999 
O  0.6937999999999995  6.8629  2.2140999999999993 
O  2.9939999999999998  6.2548  2.3211000000000004 
N  0.3313999999999995  0.3845  2.0972999999999997 
H  -0.4121000000000006  0.1522  2.5481000000000007 
H  0.9971999999999994  -0.1491  2.381099999999999 
C  1.2832  4.4105  2.7780999999999993 
C  -0.010100000000000442  3.9749  2.9668 
H  -0.6747000000000005  4.5804  3.206600000000001 
C  -0.32150000000000034  2.634  2.7977999999999996 
H  -1.1943000000000001  2.342  2.9282999999999992 
C  0.6598999999999995  1.7298  2.4364 
C  1.9672999999999998  2.1633  2.3089000000000004 
H  2.6396999999999995  1.5537  2.1091000000000006 
C  2.2775  3.497  2.4767 
H  3.1580999999999992  3.783  2.3875 
