22
unq_CSD-BUBVEB-01-a
O  0.12149999999999972  3.2119  1.1225999999999994 
O  1.0735999999999999  3.1488999999999994  -0.8959999999999999 
O  -0.8272000000000004  5.5479  -0.7412000000000001 
O  -2.9135  5.8521  -1.4278000000000004 
H  -3.6216  5.445600000000001  -1.2317999999999998 
O  -5.5073  2.3528000000000002  -3.1426 
H  -6.3374999999999995  2.2859  -3.0303000000000004 
O  -5.3255  0.25950000000000006  -2.4158999999999997 
N  -1.4774000000000003  1.3769999999999998  -0.8455000000000004 
C  0.09369999999999967  3.081999999999999  -0.10960000000000036 
C  -1.2532  2.7187  -0.7321 
C  -2.1638  3.6487  -1.194 
C  -3.3394000000000004  3.2040000000000006  -1.7717 
H  -3.9817  3.8309999999999995  -2.0835 
C  -3.5902000000000003  1.8321000000000005  -1.8966000000000003 
C  -2.6390000000000002  0.9153000000000002  -1.4175000000000004 
C  -2.7568  -0.5445000000000002  -1.5069 
H  -1.8780000000000001  -0.9537000000000004  -1.3567999999999998 
H  -3.0835  -0.7923999999999998  -2.3975999999999997 
H  -3.3864  -0.8646000000000003  -0.8283000000000005 
C  -1.8794000000000004  5.117699999999999  -1.0896999999999997 
C  -4.8918  1.3742999999999999  -2.4938000000000002 
