16
unq_CSD-CECHOK-01-a
C  1.5547000000000004  -2.194  -2.91 
C  2.4481  -3.1856999999999998  -3.497 
C  3.412699999999999  -3.828  -2.7202 
H  3.4884000000000004  -3.6229999999999998  -1.7959999999999998 
C  4.254299999999999  -4.7553  -3.285 
H  4.912699999999999  -5.1838  -2.7502 
C  4.1518999999999995  -5.0677  -4.6236999999999995 
H  4.737399999999999  -5.71  -5.0081999999999995 
C  3.2028999999999996  -4.4498  -5.4012 
H  3.126199999999999  -4.6724  -6.3221 
C  2.3582  -3.5048999999999997  -4.8495 
H  1.7143999999999995  -3.0715  -5.3962 
N  0.5190000000000001  -0.9913999999999996  -1.5359999999999998 
N  1.450899999999999  -1.9381999999999997  -1.5985999999999998 
N  0.7060999999999993  -1.4286999999999996  -3.6359 
N  0.07039999999999935  -0.6711999999999998  -2.7466999999999997 
