28
unq_CSD-CEYLOK-01-a
C  -2.1312999999999995  -2.2177999999999987  -0.6016000000000004 
C  -3.3242999999999996  -2.415099999999999  -1.3250000000000002 
H  -3.3175999999999997  -2.3130999999999986  -2.269 
C  -4.502599999999999  -2.7548999999999992  -0.6912000000000003 
H  -5.2833  -2.892199999999999  -1.2140000000000004 
C  -4.581799999999999  -2.9030999999999985  0.6932 
C  -5.876899999999999  -3.327399999999999  1.3381999999999996 
H  -5.7554  -3.3836999999999993  2.3095 
H  -6.1426  -4.204199999999998  0.9902999999999995 
H  -6.5748999999999995  -2.6705999999999985  1.1343999999999994 
C  -3.4306999999999994  -2.6519999999999992  1.4204999999999997 
H  -3.4617999999999998  -2.6974  2.3695000000000004 
C  -2.2292999999999994  -2.333599999999999  0.7940999999999994 
H  -1.4543999999999997  -2.1914999999999996  1.3247999999999998 
C  -0.5329999999999995  -4.623999999999999  -2.2304000000000004 
H  0.09280000000000044  -4.874499999999999  -1.5194 
H  -0.3207999999999993  -5.128299999999999  -3.0444000000000004 
H  -1.4486999999999997  -4.829799999999999  -1.9482 
C  -1.3563999999999998  -2.5157999999999987  -4.169700000000001 
H  -2.1639999999999997  -3.0709  -4.1577 
H  -0.7999999999999998  -2.7634999999999987  -4.9382 
H  -1.6103999999999994  -1.571299999999999  -4.2418000000000005 
C  1.4219000000000008  -2.4056999999999995  -2.8926000000000003 
H  1.5897000000000006  -1.4550999999999998  -2.7253000000000003 
H  1.6422000000000008  -2.6168999999999993  -3.8232000000000004 
H  1.9787  -2.9457999999999984  -2.2948000000000004 
N  -0.9119999999999999  -1.8568999999999996  -1.2139000000000006 
Si  -0.38429999999999964  -2.785499999999999  -2.5769 
