32
unq_CSD-CIBHEB-01-a
S  2.8479  -0.17870000000000008  1.4513 
O  4.1621  -0.15770000000000017  0.8537 
O  2.2297  1.0980999999999996  1.7277 
N  1.7688  -0.9220000000000002  0.4728 
N  3.0615  -2.8840000000000003  0.3462 
N  0.9333  -2.6569000000000003  -0.7639 
N  3.0925  -3.0399000000000003  6.6255 
H  3.9363  -3.3904000000000005  6.8797 
H  2.4364  -2.9061000000000003  7.3004 
C  1.951  -2.2174  -0.0008 
C  3.1103  -4.1724000000000006  -0.0453 
C  2.0835  -4.743  -0.788 
H  2.1114  -5.6615  -1.0307 
C  1.0143  -3.9364000000000003  -1.1666 
C  2.9222  -1.1123000000000003  2.9375 
C  1.7732  -1.2364000000000002  3.7117 
H  0.9499  -0.8824000000000001  3.3978 
C  1.8252  -1.8731000000000004  4.9365 
H  1.0381  -1.9506000000000001  5.4639 
C  3.0401  -2.4076000000000004  5.4057 
C  4.1686  -2.3108000000000004  4.5951 
H  4.986  -2.6991000000000005  4.8847 
C  4.1233  -1.6618000000000004  3.38 
H  4.9075  -1.5904000000000003  2.846 
C  4.3123  -4.9526  0.364 
H  5.0699  -4.7104  -0.2103 
H  4.1274  -5.9107  0.2718 
H  4.5326  -4.7501  1.296 
C  -0.0888  -4.4507  -2.0338 
H  -0.9072  -3.9417000000000004  -1.8574 
H  -0.2447  -5.3973  -1.8364 
H  0.1622  -4.3494  -2.9755 
