35
unq_CSD-CIFZOH-01-d
Si  -1.2972  -2.4054  1.7144 
Si  -0.8933  -2.4734999999999996  -1.3979999999999997 
O  -3.4147  -4.1522  1.1162000000000005 
O  -1.5755  -0.5554999999999994  -3.2769999999999997 
N  -0.847  -1.6174  0.16100000000000003 
C  -3.6807999999999996  -5.4681  0.8837000000000006 
H  -4.5466  -5.8043  0.6854999999999998 
C  -2.6086  -6.2187  0.9627000000000003 
H  -2.5577  -7.1601  0.8420000000000001 
C  -1.5221  -5.3213  1.2696999999999998 
H  -0.6113  -5.5601  1.3979000000000004 
C  -2.0507999999999997  -4.0656  1.3412000000000002 
C  0.2539  -2.7413999999999996  2.6839 
H  0.6903999999999999  -1.8925  2.906 
H  0.8625999999999998  -3.2904999999999998  2.1460000000000004 
H  0.02639999999999998  -3.2181999999999995  3.5095000000000005 
C  -2.597  -1.4082  2.5886 
H  -2.2386  -0.5209999999999999  2.8032 
H  -2.8571  -1.8647  3.4156 
H  -3.3804999999999996  -1.3114  2.0074 
C  -2.5622  -3.1109999999999998  -1.8180999999999998 
H  -3.2104999999999997  -2.3765  -1.7822999999999998 
H  -2.8179  -3.8049999999999997  -1.1757999999999997 
H  -2.5484999999999998  -3.4904  -2.7211999999999996 
C  0.4293  -3.7634999999999996  -1.444 
H  1.2916999999999998  -3.3556  -1.2189999999999999 
H  0.476  -4.1518999999999995  -2.3426 
H  0.22150000000000003  -4.4669  -0.7942999999999998 
C  -0.482  -1.1688  -2.6659999999999995 
C  0.6387  -0.8054999999999994  -3.3335999999999997 
H  1.5210000000000001  -1.1026999999999996  -3.1414 
C  0.2701  0.10200000000000031  -4.3738 
H  0.8421999999999998  0.5241000000000007  -5.0027 
C  -1.0652  0.22930000000000028  -4.2725 
H  -1.5876000000000001  0.7971000000000004  -4.8254 
