15
unq_CSD-MOMCAU-01-a
F  0.7888999999999999  -6.187000000000001  4.3124 
F  2.0526  -4.7966999999999995  5.190100000000001 
F  0.1593  -4.947700000000001  5.8355 
N  -1.0518  -1.3122000000000007  1.0447000000000006 
N  -1.4353999999999996  -2.8514999999999997  2.702 
C  -0.5723000000000003  -2.1533999999999995  1.9522000000000013 
C  -0.9435000000000002  -3.7261000000000006  3.5860000000000003 
C  0.39750000000000085  -3.9967000000000006  3.782 
C  1.2560000000000002  -3.2417  2.989600000000001 
C  0.8414999999999999  -2.3103  2.116200000000001 
C  0.8012999999999995  -4.9437999999999995  4.7278 
H  -1.9179999999999993  -1.3397000000000006  0.8913000000000011 
H  -1.5669000000000004  -4.2006  4.1228 
H  2.1903000000000006  -3.3947000000000003  3.0726000000000013 
H  1.4602000000000004  -1.7789000000000001  1.6262000000000008 
