18
unq_CSD-MOMCEY-01-b
N  -1.9190999999999998  0.048899999999999944  0.5800999999999998 
N  -3.7538000000000005  0.02749999999999997  1.9903999999999993 
C  -2.3854  -0.016199999999999992  1.8538999999999994 
C  -4.2666  -0.05359999999999998  3.2101000000000006 
C  -3.5232000000000006  -0.17720000000000002  4.394299999999999 
C  -4.122  -0.29600000000000004  5.6738 
C  -3.3619  -0.4093  6.7783999999999995 
C  -1.9462000000000006  -0.3993  6.6775 
C  -1.3279  -0.29090000000000005  5.4406 
C  -2.1069999999999998  -0.19540000000000002  4.2607 
C  -1.5540000000000003  -0.11329999999999996  3.001099999999999 
H  -2.5210000000000004  0.11960000000000004  -0.05820000000000025 
H  -5.214  -0.0262  3.2897 
H  -5.0684000000000005  -0.2952  5.753399999999999 
H  -3.7742  -0.4959  7.629899999999999 
H  -1.4176000000000002  -0.4684  7.4636 
H  -0.37980000000000036  -0.27980000000000005  5.385199999999999 
H  -0.6092000000000004  -0.12239999999999995  2.8987999999999996 
