11
unq_CSD-MOXVON-01-a
C  0.3052999999999999  -2.2299999999999995  4.168 
C  0.16839999999999966  -1.6801999999999997  2.8874000000000004 
H  -0.21640000000000015  -0.8155999999999999  2.809 
C  0.5649000000000002  -2.3287999999999998  1.7281000000000004 
C  1.0721000000000003  -3.7459  1.7961999999999998 
H  0.3798999999999997  -4.3564  1.4665 
H  1.2920000000000003  -3.9699999999999998  2.7245 
H  1.8749999999999996  -3.8323  1.2412 
N  0.49419999999999975  -1.7548999999999997  0.5425000000000004 
N  0.4034  -2.6462999999999997  5.2421999999999995 
H  0.7444999999999999  -2.2392999999999996  -0.09099999999999975 
