14
unq_CSD-MUTJIU-01-a
Cl  0.7341  2.7485  6.1412 
N  -0.0359  4.4044  1.3253 
C  0.0726  4.6719  2.7057 
C  0.3584  3.6723  3.6438 
H  0.4861  2.7906  3.376 
C  0.4471  4.0214  4.9791 
C  -0.0234  3.1598  0.9851 
C  0.3038  5.3037  5.4129 
H  0.3855  5.5159  6.3144 
N  -0.0284  2.0559  0.6446 
C  -0.0817  5.9731  3.1459 
H  -0.2654  6.6462  2.531 
C  0.0332  6.2833  4.4774 
H  -0.0736  7.1649  4.7527 
