23
unq_CSD-NAFVAU-01-a
C  -0.8853  -0.3098000000000001  -3.027100000000001 
H  -1.3059  -1.1213000000000002  -2.8553000000000006 
C  -0.7862  0.2852  -4.2457 
H  -1.1256  -0.03469999999999995  -5.0496 
C  0.19680000000000009  1.51  -2.7483000000000004 
H  0.6676  2.2088  -2.3573000000000004 
C  0.31099999999999994  2.4101999999999997  -5.089 
H  0.3682000000000001  1.9477  -5.9385 
H  1.1963  2.7445  -4.8786000000000005 
C  -0.609  3.5773  -5.2354 
C  -1.3403  3.985  -6.3155 
H  -1.4217  3.4332  -7.0825000000000005 
C  -2.4974  6.1869  -6.7792 
H  -3.0294  6.7576  -6.2068 
H  -3.0924  5.755800000000001  -7.4078 
C  -1.4843  7.0542  -7.5366 
N  -0.09050000000000002  1.4401  -4.0537 
N  -0.27449999999999997  0.4694999999999999  -2.0777 
N  -1.8311  5.1823  -5.9613000000000005 
N  -1.4333  5.529400000000001  -4.727 
N  -0.6887  4.5418  -4.282500000000001 
O  -1.8691  8.202  -7.8417 
O  -0.37549999999999994  6.568199999999999  -7.799600000000001 
