71
unq_CSD-NAKMAP-01-a
N  -0.3124  0.41820000000000057  2.296999999999999 
N  2.1189  3.589600000000001  5.8447 
H  1.7086999999999999  3.3695000000000004  6.5791 
C  -0.6141  -0.27949999999999964  4.403599999999999 
H  -0.9994999999999999  -0.4025999999999996  5.253399999999999 
C  -1.1501000000000001  0.4619  3.3795 
C  0.6161  -0.8284000000000002  3.9673 
C  0.7683  -0.3540000000000001  2.701599999999999 
H  1.5191  -0.5289000000000001  2.1633999999999993 
C  1.5361  -1.7332999999999998  4.75 
C  2.6857  -2.2237999999999998  3.8404999999999987 
H  3.2218  -1.4661999999999997  3.5588999999999995 
H  2.3151  -2.6642  3.0604999999999993 
H  3.2408  -2.8503999999999996  4.3314 
C  0.7219  -2.9734  5.168700000000001 
H  -0.006299999999999972  -2.7013999999999996  5.749299999999998 
H  1.2983  -3.5934  5.6446000000000005 
H  0.36150000000000004  -3.4072999999999998  4.3787 
C  2.1619  -0.9950999999999999  5.926199999999998 
C  2.2511  -1.5438999999999998  7.204599999999999 
H  1.8498999999999999  -2.3759999999999994  7.379000000000001 
C  2.9118  -0.8930999999999996  8.211299999999998 
H  2.9567  -1.2800000000000002  9.066099999999999 
C  3.5088  0.3211000000000004  7.979599999999998 
H  3.9806  0.7452000000000005  8.674800000000001 
C  3.4232  0.9298000000000002  6.738599999999998 
C  2.7372  0.2530999999999999  5.7468 
H  2.6557  0.6627000000000001  4.904499999999999 
C  4.1674  2.2394999999999996  6.4072 
C  4.5061  3.0520999999999994  7.650600000000001 
H  3.6886  3.2981999999999996  8.109200000000001 
H  4.9864  3.8535000000000004  7.388999999999999 
H  5.0615000000000006  2.5211000000000006  8.2412 
C  5.4782  1.852500000000001  5.687000000000001 
H  5.9725  2.6555  5.462699999999998 
H  5.2692000000000005  1.3636  4.874600000000001 
H  6.0162  1.2940000000000005  6.270099999999999 
C  3.3448  3.1168999999999993  5.4802 
C  3.6357  3.6835000000000004  4.2691 
H  4.4177  3.549100000000001  3.765699999999999 
C  2.538  4.513999999999999  3.9101999999999997 
H  2.4649  5.0143  3.1203000000000003 
C  1.613  4.463800000000001  4.8995 
C  0.31820000000000004  5.206900000000001  5.113800000000001 
C  0.525  6.2074  6.2651 
H  1.2465000000000002  6.814500000000001  6.040900000000001 
H  0.7496  5.7233  7.077500000000001 
H  -0.29159999999999997  6.7125  6.4072 
C  -0.0363  6.001799999999999  3.8604000000000003 
H  0.6723  6.6348  3.6685 
H  -0.8676  6.4794  4.004899999999999 
H  -0.13880000000000003  5.3931000000000004  3.1102999999999987 
C  -0.8261999999999999  4.203200000000001  5.4054 
C  -1.6103  4.266299999999999  6.5442 
H  -1.4409  4.920400000000001  7.1996 
C  -2.6603999999999997  3.3468  6.718699999999998 
H  -3.1759  3.3629999999999995  7.5061 
C  -2.9343  2.4208  5.7318 
H  -3.6586999999999996  1.8315000000000001  5.844000000000001 
C  -2.1719  2.3398000000000003  4.588000000000001 
C  -1.1084999999999998  3.2254000000000005  4.468399999999999 
H  -0.5513  3.1557999999999993  3.7158999999999995 
C  -2.4015  1.3133999999999997  3.4642 
C  -3.6158  0.4214000000000002  3.773199999999999 
H  -3.7446  -0.2115999999999998  3.048 
H  -4.4081  0.9734999999999996  3.8629 
H  -3.4607  -0.06099999999999994  4.6005 
C  -2.6713999999999998  2.0355000000000008  2.155899999999999 
H  -1.9165  2.6021  1.9366000000000003 
H  -3.4699999999999998  2.5793999999999997  2.2431 
H  -2.8022  1.3847000000000005  1.4482 
