10
unq_CSD-NALPOF-01-a
N  0.15230000000000032  -0.41939999999999955  1.7956999999999996 
C  0.1615000000000002  -0.6663999999999994  2.9198999999999997 
C  0.027300000000000324  -0.9917000000000016  4.272399999999999 
C  -1.0144000000000002  -0.4272999999999989  4.9947 
C  -1.8717000000000006  0.5253000000000014  4.398300000000001 
N  -2.54  1.3229000000000006  3.9497000000000004 
C  -1.2583000000000002  -0.821200000000001  6.337900000000001 
N  -1.4812000000000003  -1.113199999999999  7.412000000000001 
C  0.9129000000000005  -1.9030999999999985  4.912000000000001 
N  1.6143999999999998  -2.6144999999999996  5.4361999999999995 
