15
unq_CSD-PEYKEK-01-b
O  2.9063000000000003  -0.20629999999999882  1.2591999999999999 
O  3.9269000000000003  0.08500000000000085  3.6420999999999992 
N  0.7266000000000004  0.006800000000000139  1.996100000000002 
C  2.0773000000000006  -0.03029999999999866  2.2203000000000017 
C  2.5594000000000006  0.1114000000000015  3.572800000000001 
C  1.6964000000000001  0.23790000000000155  4.6235 
H  2.0114000000000005  0.32260000000000133  5.494700000000002 
C  0.31210000000000004  0.23790000000000155  4.349399999999999 
H  -0.30279999999999996  0.31150000000000055  5.0442 
C  -0.11749999999999972  0.12670000000000137  3.062000000000001 
H  -1.0332  0.13370000000000104  2.9003000000000014 
C  4.4975000000000005  0.1684000000000001  4.955400000000001 
H  4.2066  0.9785000000000004  5.3794 
H  5.454700000000001  0.16699999999999982  4.889700000000001 
H  4.212200000000001  -0.5861000000000001  5.4773 
