14
unq_CSD-NALZUW-01-a
N  -0.12630000000000052  0.7863000000000007  1.9093000000000018 
C  -0.0707000000000022  0.1640000000000006  2.908700000000003 
N  -0.11199999999999477  -0.4836999999999998  3.9939999999999998 
C  1.007400000000004  -0.8540999999999999  4.668900000000001 
C  0.9569000000000045  -1.9087999999999998  5.631700000000002 
C  2.085499999999996  -2.2922999999999996  6.280800000000003 
H  2.018100000000004  -3.0130999999999997  6.884700000000002 
C  3.3067999999999955  -1.7169999999999996  6.119600000000002 
H  4.0565  -1.9819999999999998  6.624700000000001 
C  3.3825999999999965  -0.7233999999999998  5.161100000000001 
C  2.237099999999998  -0.2526999999999999  4.497 
H  2.312899999999999  0.48819999999999997  3.921000000000003 
Cl  -0.5507999999999953  -2.6932  5.887500000000003 
Cl  4.940899999999999  -0.040899999999999714  4.830100000000002 
