20
unq_CSD-TORXUT-01-d
N  0.8121  -1.7299  -0.2843000000000002 
C  1.8804000000000007  -1.6283999999999998  -1.3236999999999999 
C  3.1889000000000003  -2.0939  -0.7550999999999999 
C  3.0874000000000006  -3.547  -0.3320000000000001 
C  1.7816  -3.8991000000000002  0.3111999999999999 
C  1.5854000000000008  -5.144299999999999  0.8994 
C  0.36990000000000034  -5.5034  1.4545 
C  -0.6799999999999997  -4.6261  1.4459 
C  -0.5242999999999998  -3.3968000000000003  0.8613999999999999 
C  0.6938000000000004  -3.0049  0.30999999999999983 
H  1.9572000000000003  -0.7263  -1.6135 
H  1.6553000000000004  -2.1784  -2.0659 
H  3.3864  -1.5716999999999999  0.012799999999999923 
H  3.888600000000001  -1.9795  -1.3934 
H  3.786600000000001  -3.74  0.28179999999999983 
H  3.1933000000000007  -4.0781  -1.1121 
H  2.310600000000001  -5.7589999999999995  0.9177 
H  0.2752000000000008  -6.3557999999999995  1.8592 
H  -1.5219999999999994  -4.883699999999999  1.8103 
H  -1.2557999999999994  -2.7951  0.8442999999999998 
