29
unq_CSD-TUBKOS-01-a
C  -1.1684  -2.573  -1.3766000000000003 
C  -1.9047999999999998  -3.7573999999999996  -1.5176000000000003 
H  -2.3419  -4.1154  -0.7793000000000001 
C  -1.9887000000000001  -4.3934  -2.7249 
H  -2.4777  -5.1802  -2.8058 
C  -1.3495  -3.8685  -3.8120000000000003 
C  -0.6227999999999998  -2.7064  -3.7185 
H  -0.19430000000000014  -2.3596  -4.4671 
C  -0.5343  -2.0591999999999997  -2.5054 
H  -0.04579999999999984  -1.2708  -2.4407 
C  -1.9058000000000002  -2.5498  3.0643999999999996 
C  -1.69  -1.9552999999999998  4.3087 
H  -1.2625000000000002  -1.1313999999999997  4.352600000000001 
C  -2.1016  -2.5694999999999997  5.474400000000001 
H  -1.9615  -2.1654999999999998  6.299300000000001 
C  -2.7229  -3.7901  5.3878 
C  -2.9752  -4.3971  4.178100000000001 
H  -3.4156  -5.2158  4.1469000000000005 
C  -2.5701  -3.7796  3.0124 
H  -2.7383  -4.1817  2.1910000000000003 
N  -1.432  -4.551  -5.0956 
N  -3.154  -4.4634  6.612400000000001 
N  -1.021  -1.8834  -0.17310000000000025 
N  -1.544  -2.5091  0.8573 
N  -1.4055  -1.8485  1.9529 
O  -2.0069  -5.6486  -5.1152 
O  -0.9532999999999996  -4.0418  -6.0741 
O  -3.6855  -5.5524  6.5234000000000005 
O  -2.9529  -3.9112  7.678800000000001 
