29
unq_CSD-UDALAP-01-a
S  0.06270000000000042  1.8748000000000005  -2.5122000000000004 
S  1.6141000000000005  2.7225  -0.28200000000000003 
N  0.45610000000000017  1.7477999999999998  -0.9221000000000004 
O  -1.2649  1.3543000000000003  -2.6452000000000004 
O  0.3410000000000002  3.2052999999999994  -2.9736000000000002 
O  1.8841999999999999  2.196999999999999  1.0198999999999998 
O  2.7090000000000005  2.8926  -1.1917000000000004 
F  3.6399  -1.7248999999999999  -5.391500000000001 
F  -0.9016000000000002  7.925700000000001  0.4641000000000002 
C  1.1608999999999998  0.7773000000000003  -3.3624 
C  2.3176000000000005  1.2759999999999998  -3.9081 
H  2.5326000000000004  2.1966  -3.8189 
C  3.1716000000000006  0.4192  -4.5929 
H  3.9814  0.7416  -4.9737 
C  2.817800000000001  -0.9001999999999999  -4.7056000000000004 
C  1.6762000000000006  -1.4231000000000007  -4.1603 
H  1.4769000000000005  -2.3472  -4.2461 
C  0.8121999999999998  -0.5681000000000012  -3.4737 
H  0.005600000000000271  -0.8947000000000003  -3.0914 
C  0.8391000000000002  4.289199999999999  -0.0752000000000006 
C  1.2511  5.361699999999999  -0.8405000000000005 
H  1.9344999999999999  5.2484  -1.4897 
C  0.6646999999999998  6.6023  -0.6603000000000003 
H  0.9390999999999998  7.353299999999999  -1.1751 
C  -0.3151999999999999  6.7158999999999995  0.2710999999999997 
C  -0.7652000000000001  5.660299999999999  1.0450999999999997 
H  -1.4669999999999996  5.7789  1.6724999999999994 
C  -0.16159999999999997  4.429499999999999  0.8734999999999999 
H  -0.4295  3.686399999999999  1.4025999999999996 
