15
unq_CSD-UDEKUK-01-a
C  -5.3059  -2.0519  0.0238 
C  -5.6532  -1.3799  1.3117 
C  -4.583  -0.8464  2.1098 
C  -4.6908  -0.3175  3.4226 
C  -6.0227  -0.1824  4.1126 
C  -3.2658  -0.8545  1.5702 
N  -2.2005  -0.8383  1.142 
O  -6.84  -1.321  1.6427 
O  -3.6891  0.0658  4.0542 
H  -6.0043  -2.4133  -0.3136 
H  -4.9811  -1.478  -0.5299 
H  -4.6739999999999995  -2.7136  0.173 
H  -6.4759  0.612  3.7525 
H  -5.8953  -0.1155  4.9961 
H  -6.5761  -0.9815  3.9255 
