20
unq_CSD-PIDWAB-01-a
S  7.358500000000001  0.5133000000000001  -5.0563 
N  1.7115  0.20559999999999956  -1.2620000000000005 
C  3.9014000000000006  0.8671999999999995  -2.8775000000000004 
C  2.7257000000000007  0.36939999999999973  -3.4209 
H  2.6481000000000003  0.2444999999999995  -4.3592 
C  2.8648000000000007  0.6437999999999997  -0.7366999999999999 
H  2.9254000000000007  0.7308999999999992  0.20779999999999976 
C  3.9663000000000004  0.9753999999999996  -1.4977 
H  4.764200000000001  1.2744999999999997  -1.0789 
C  1.6692  0.056199999999999584  -2.5882 
H  0.8717000000000006  -0.2815000000000003  -2.9792 
C  5.8756  0.0649999999999995  -4.186 
H  5.3154  -0.5041000000000002  -4.771100000000001 
H  6.1172  -0.4671000000000003  -3.3873 
O  8.1646  1.2605999999999993  -4.0887 
O  6.9566  1.3499999999999996  -6.1771 
O  7.9864  -0.7235000000000005  -5.4569 
C  5.0686  1.2763  -3.7511 
H  5.6524  1.899  -3.2492 
H  4.7301  1.7512999999999996  -4.5509 
