29
unq_CSD-QALYAD-01-a
I  1.0719000000000003  -4.354  6.342700000000001 
I  -7.0624  0.11870000000000003  -4.0344 
S  -2.3884999999999996  -1.0812  1.7493000000000003 
S  -1.9440999999999997  -2.456  -0.7387999999999999 
O  -3.6826999999999996  -1.6945000000000001  1.6618 
O  -2.2973999999999997  0.31689999999999996  2.0833999999999997 
O  -0.8094000000000001  -2.4995000000000003  -1.6018 
O  -2.3530999999999995  -3.6527  -0.061799999999999855 
N  -1.5919999999999996  -1.2543000000000002  0.3273999999999999 
C  -1.444  -1.9639  2.9562000000000004 
C  -1.6944  -3.3032  3.1773000000000002 
H  -2.3589  -3.754  2.6704000000000003 
C  -0.9687000000000001  -3.9901999999999997  4.1484000000000005 
H  -1.1318000000000001  -4.9115  4.3100000000000005 
C  -0.009500000000000064  -3.3116  4.8698999999999995 
C  0.26500000000000057  -1.9865  4.647500000000001 
H  0.9390999999999998  -1.5428  5.1492 
C  -0.46499999999999986  -1.2969  3.6698999999999997 
H  -0.2885  -0.3792  3.4979999999999998 
C  -3.3209  -1.8386  -1.66 
C  -3.1045  -0.8441999999999998  -2.5871 
H  -2.2244  -0.5270000000000001  -2.7513 
C  -4.1853  -0.30799999999999983  -3.284 
H  -4.0501  0.3820000000000001  -3.9215 
C  -5.4582  -0.7913000000000001  -3.0358 
C  -5.6742  -1.7924  -2.1254999999999997 
H  -6.552099999999999  -2.1201  -1.9703 
C  -4.576499999999999  -2.3301  -1.4234 
H  -4.7071  -3.0273  -0.7911000000000001 
