32
unq_CSD-QEJFES-01-b
N  2.1211  0.6290999999999998  0.02929999999999966 
C  2.6662999999999997  0.9113000000000002  1.3683999999999998 
H  3.3949999999999996  0.26849999999999996  1.5569000000000002 
H  1.9535999999999998  0.7602999999999995  2.038 
C  3.2021999999999995  2.3155999999999994  1.5398999999999998 
C  2.3446999999999996  3.3848999999999996  1.7069999999999994 
H  1.4052999999999995  3.2393999999999994  1.7102999999999997 
C  2.8426  4.6722  1.8698000000000001 
H  2.2470999999999997  5.407499999999999  1.9611999999999994 
C  4.2200999999999995  4.8781  1.8981999999999997 
H  4.5719  5.7516  2.0338 
C  5.0545  3.8269999999999995  1.7311 
H  5.9949  3.97  1.7289999999999996 
C  4.5589  2.5403  1.5608 
H  5.159  1.8112999999999997  1.4593999999999996 
C  3.0968  0.7460999999999998  -0.9976000000000003 
C  2.9841999999999995  1.7917  -1.947 
C  3.9316000000000004  1.9197000000000002  -2.9515000000000002 
H  3.846099999999999  2.6267  -3.5799000000000003 
C  4.9889  1.0524999999999998  -3.0598 
H  5.634799999999999  1.1625  -3.7458 
C  5.095299999999999  0.017199999999999882  -2.1531000000000002 
H  5.817899999999999  -0.5955000000000004  -2.234 
C  4.1718  -0.15300000000000002  -1.1214000000000002 
C  4.3724  -1.3082000000000003  -0.16960000000000042 
H  4.7657  -2.0645000000000002  -0.6517000000000002 
H  3.5077999999999996  -1.5743000000000003  0.20679999999999987 
H  4.973  -1.0339  0.5551999999999997 
C  1.8427999999999995  2.7680000000000002  -1.8812000000000002 
H  1.9386999999999999  3.4310999999999994  -2.5969 
H  1.8499999999999996  3.2205999999999997  -1.0125000000000002 
H  0.9959999999999996  2.2873999999999994  -1.9934000000000003 
