17
unq_CSD-QIFQEB-01-a
C  2.4636000000000005  -2.201699999999999  -4.0679 
C  2.8068  -1.6844000000000001  -5.3050999999999995 
H  2.4729  -0.8475000000000001  -5.5735 
C  3.6336000000000004  -2.3912999999999993  -6.1415 
H  3.8611000000000004  -2.049999999999999  -6.9876 
C  4.1181  -3.5965  -5.7287 
C  3.7725  -4.1354999999999995  -4.5337 
H  4.0845  -4.985899999999999  -4.2893 
C  2.9585  -3.4204999999999997  -3.6816 
H  2.7426000000000004  -3.7699  -2.8354999999999997 
C  1.5967  -1.340399999999999  -3.1761 
O  1.1364000000000003  -0.2922999999999991  -3.5612 
N  1.3859000000000001  -1.8874999999999993  -1.9244999999999999 
N  0.7764000000000002  -1.1433  -1.0833 
N  5.0121  -4.346799999999999  -6.6518 
O  5.1151  -5.538499999999999  -6.4785 
O  5.5831  -3.7211  -7.5351 
