16
unq_CSD-QIPPEK-01-b
N  2.251100000000001  0.13129999999999953  -1.0946000000000002 
N  3.5641  -3.0755000000000003  -3.6384000000000003 
N  1.8375000000000004  2.5892999999999997  -3.8568000000000002 
N  1.7985000000000007  -2.7504000000000004  -6.481 
N  2.0549  3.1534000000000004  -6.9855 
N  1.4153000000000002  -0.19169999999999998  -9.4057 
C  1.9893  1.5238999999999994  -4.2003 
C  2.196900000000001  0.13759999999999994  -4.5826 
C  2.4174000000000007  -0.26090000000000035  -2.1653000000000002 
C  3.086500000000001  -2.0436000000000005  -3.6139 
C  2.5635000000000012  -0.7307000000000006  -3.4918 
C  1.5949000000000009  0.13759999999999994  -8.3235 
C  2.011700000000001  -0.23580000000000023  -5.896100000000001 
C  1.8528000000000002  0.6387999999999998  -6.9999 
C  1.9497  2.0335  -6.9179 
C  1.9245999999999999  -1.6535000000000002  -6.2166 
