28
unq_CSD-QIZXAY-01-a
N  0.18189999999999995  -2.0681000000000003  -0.3033000000000001 
C  1.1225  -2.5454  -1.2281 
C  1.2191  -1.9358  -2.496 
C  -0.42420000000000013  -3.0887000000000002  0.5868000000000002 
C  2.9661  -4.0039  -1.8868999999999998 
C  2.183  -2.3308999999999997  -3.4183 
C  2.0206  -3.5857  -0.9621 
C  -0.05889999999999995  -2.885  2.0461 
C  3.0519  -3.3569000000000004  -3.11 
C  2.2856  -1.6123  -4.7633 
C  3.9398999999999997  -5.1246  -1.5412999999999997 
C  -1.9386  -3.1388  0.41270000000000007 
H  0.6128  -1.2405000000000002  -2.7247 
H  -0.06240000000000001  -3.9789000000000003  0.3108000000000004 
H  1.9815  -4.0218  -0.11929999999999996 
H  0.9169999999999998  -2.8564  2.1381000000000006 
H  -0.4145000000000001  -3.6268000000000002  2.5781 
H  -0.4413  -2.0413  2.3643 
H  3.7120999999999995  -3.6231999999999998  -3.739 
H  1.5987999999999998  -0.9152  -4.8155 
H  2.1498  -2.2576  -5.4892 
H  3.1726  -1.2048  -4.8503 
H  3.7394999999999996  -5.4678  -0.6463000000000001 
H  4.8564  -4.7797  -1.5612 
H  3.8494  -5.8486  -2.1976 
H  -2.1553  -3.2710999999999997  -0.532 
H  -2.3315  -2.2969  0.7235000000000005 
H  -2.3036000000000003  -3.8823999999999996  0.9398 
