33
unq_CSD-QOHXAO-01-a
C  2.3004999999999995  -1.5958000000000006  -0.5794000000000001 
C  3.543899999999999  -2.455399999999999  -0.35540000000000016 
C  3.6084999999999994  -3.4082999999999997  0.6640999999999999 
H  2.865  -3.5311000000000003  1.2402 
C  4.742199999999999  -4.1706  0.8401 
H  4.794599999999999  -4.8106  1.5385 
C  5.7913  -3.9804000000000004  -0.015900000000000025 
C  5.7448999999999995  -3.0893999999999995  -1.0594000000000001 
H  6.480499999999999  -2.9991000000000003  -1.6538 
C  4.600299999999999  -2.322799999999999  -1.2263000000000002 
H  4.5458  -1.7033000000000005  -1.9441000000000002 
C  1.685599999999999  -0.5654000000000003  2.6506 
H  0.8518999999999988  -0.12650000000000006  2.5362999999999998 
C  2.3073999999999995  -0.6393000000000004  3.9718 
C  1.5970999999999993  -0.2741000000000007  5.1125 
H  0.6991999999999994  0.026300000000000878  5.0256 
C  2.1778999999999993  -0.3392999999999997  6.3812 
H  1.6866000000000003  -0.12369999999999948  7.1652 
C  3.4852999999999987  -0.7283000000000008  6.4395 
C  4.190799999999999  -1.0823999999999998  5.3285 
C  3.6494  -1.0695999999999994  4.0758 
H  4.148199999999999  -1.3377  3.3135 
C  5.607899999999999  -0.9596  7.0304 
H  6.154399999999999  -1.5886999999999993  7.5664 
H  6.047099999999999  -0.07189999999999941  7.0405999999999995 
N  1.6967999999999996  -1.0184999999999995  0.4183999999999999 
N  2.2774  -1.0978999999999992  1.6504999999999999 
N  7.041  -4.7186  0.22750000000000004 
O  1.915099999999999  -1.4695  -1.7626 
O  4.296799999999999  -0.8680000000000003  7.563 
O  5.4803  -1.4357000000000006  5.6851 
O  7.1873000000000005  -5.2247  1.3293 
O  7.880800000000001  -4.7522  -0.6377000000000002 
