19
unq_CSD-PIFSEE-01-b
N  1.3467000000000002  -0.9360999999999997  1.1052 
C  1.8033000000000001  -2.224100000000001  1.4004000000000003 
C  1.4618000000000002  -3.2924000000000007  0.5418000000000003 
C  1.9557000000000002  -4.5658  0.8043 
H  1.7329000000000008  -5.281700000000001  0.2219000000000002 
C  2.7701000000000002  -4.811800000000001  1.9045000000000005 
H  3.1083000000000007  -5.6843  2.0671999999999997 
C  3.0818000000000003  -3.766400000000001  2.7607999999999997 
H  3.6293000000000006  -3.934800000000001  3.5187 
C  2.6122000000000005  -2.4749000000000008  2.5354 
C  2.960400000000001  -1.3663000000000007  3.4966 
H  3.4045000000000005  -1.7442000000000002  4.2833000000000006 
H  2.1413  -0.9046000000000003  3.7744999999999997 
H  3.5617  -0.7298000000000009  3.056 
C  0.5485000000000007  -3.0456000000000003  -0.6351999999999998 
H  0.4167000000000005  -3.8831000000000007  -1.1289999999999998 
H  0.9522000000000004  -2.377300000000001  -1.2267 
H  -0.31669999999999954  -2.7163000000000004  -0.3127 
H  1.6562000000000001  -0.3841000000000001  1.6763000000000003 
