36
unq_CSD-KAXZEP-01-a
N  -0.4703999999999997  0.3460000000000001  2.1108000000000002 
C  -1.0606999999999998  1.5464000000000002  2.4859 
H  -1.3674999999999997  2.1521999999999997  1.8219 
C  -1.2031999999999998  1.8599  3.8329000000000004 
H  -1.6063999999999998  2.6814999999999998  4.0889 
C  -0.7541000000000002  0.9729999999999999  4.8041 
C  -0.1639999999999997  -0.22750000000000004  4.4297 
H  0.14300000000000068  -0.8346  5.0935 
C  -0.021300000000000097  -0.5423  3.0825 
H  0.3817000000000004  -1.3625999999999996  2.8265000000000002 
C  -0.7403000000000004  1.3498999999999999  6.31 
H  0.2137999999999991  1.4533  6.592499999999999 
C  -1.3616000000000001  0.22639999999999993  7.1486 
C  -2.6948999999999996  -0.14329999999999998  6.9296999999999995 
H  -3.2095000000000002  0.31510000000000016  6.2764 
C  -3.2811000000000003  -1.1877000000000004  7.6712 
H  -4.1942  -1.4336000000000002  7.5812 
C  -2.3783000000000003  -1.8536000000000001  8.577 
H  -2.7069  -2.6067  9.053700000000001 
C  -1.1287000000000003  -1.4806999999999997  8.7871 
H  -0.5880000000000001  -1.9206000000000003  9.435 
C  -0.6222000000000003  -0.4522000000000004  8.0508 
H  0.2856000000000005  -0.20219999999999994  8.1762 
C  -1.4744000000000002  2.7035  6.5872 
H  -1.0974000000000004  3.4139  6.009799999999999 
H  -2.4381000000000004  2.6123000000000003  6.3770999999999995 
C  -1.2982000000000005  3.0871  8.072000000000001 
H  -1.7860000000000005  2.4347000000000003  8.635200000000001 
H  -0.33779999999999966  3.0324999999999998  8.3086 
C  -1.7919999999999998  4.4473  8.3669 
H  -1.2687999999999997  5.0927  7.8301 
H  -2.7340999999999998  4.5085  8.0685 
C  -1.7272999999999996  4.8571  9.7687 
H  -1.9583000000000004  5.8061  9.8429 
H  -0.8190999999999997  4.7139  10.1095 
H  -2.3597  4.324  10.2948 
