13
unq_CSD-KEXQAH-01-a
N  1.3872  1.0686999999999998  -0.8972000000000002 
H  1.5448999999999997  0.8727999999999998  -1.7200000000000002 
N  2.7098  2.9595000000000002  -1.1069000000000002 
H  2.6605000000000003  2.9474  -1.9653 
H  3.1614999999999998  3.5736999999999997  -0.7112000000000003 
N  1.3860000000000001  3.0083  1.7252999999999998 
N  3.2981000000000003  1.5373999999999999  1.6880999999999995 
O  1.4297999999999997  3.2367999999999997  2.9367 
O  0.5167999999999999  3.5643000000000002  1.0117000000000003 
O  3.501  1.6362  2.9082999999999997 
O  4.0396  0.8573999999999997  0.9565999999999999 
C  2.0889  2.0303  -0.39480000000000004 
C  2.2255999999999996  2.1461  1.0727000000000002 
