18
unq_CSD-CIXYUD-01-d
O  5.7796  -5.9597  -1.8002000000000002 
N  4.3515999999999995  -0.7035999999999998  -0.6482999999999999 
N  2.2464999999999997  -0.13179999999999925  0.39729999999999954 
C  3.1039  -0.4400999999999997  -0.04549999999999965 
C  5.4298  -6.991299999999999  -1.1408 
C  4.668099999999999  -2.0647999999999995  -0.8332000000000002 
C  3.9763999999999995  -3.1389999999999993  -0.3075999999999999 
C  4.3025  -4.443499999999999  -0.6083000000000003 
C  5.3291  -4.7071  -1.436 
C  6.052  -3.6857999999999995  -1.9257 
C  5.7623  -2.3566999999999996  -1.5988000000000002 
H  5.832800000000001  -7.7713  -1.5312000000000001 
H  4.4747  -7.078099999999999  -1.1656 
H  5.7197  -6.9029  -0.23039999999999994 
H  3.2659  -2.9745999999999997  0.27039999999999953 
H  3.8122000000000003  -5.1415  -0.23859999999999992 
H  6.7645  -3.8667999999999996  -2.4981 
H  6.3131  -1.6719999999999997  -1.9008000000000003 
