8
unq_CSD-CIYFIA-01-a
O  0.9876999999999999  -2.5723000000000003  -1.6643999999999999 
N  -0.7302000000000001  -1.0796000000000001  -1.5622999999999998 
N  -2.5047  0.31849999999999934  -1.6687999999999998 
H  -3.2456  0.5686999999999998  -2.0269 
C  -1.9242  -0.6402000000000001  -2.1026 
H  -2.2897  -1.1017000000000001  -2.8232 
C  -0.07740000000000002  -2.1592000000000002  -2.0925 
H  -0.46470000000000006  -2.5996  -2.8144 
