61
unq_CSD-CORFAS-01-a
C  -0.24650000000000016  -0.9595  2.0434 
C  0.9384999999999994  -1.4702  2.6887 
C  1.2466  -2.8154  2.5947 
H  2.0169999999999995  -3.1431  3.0444 
C  0.46340000000000003  -3.7054  1.8618 
H  0.7145999999999999  -4.6189  1.7885 
C  -0.6735000000000007  -3.2477  1.249 
H  -1.2082000000000006  -3.8578  0.7548 
C  -1.0708000000000002  -1.8985  1.3306 
C  -2.4959000000000002  -1.5542  0.8981 
H  -2.6029000000000004  -0.5618  0.954 
C  -3.4832  -2.189  1.881 
H  -4.397  -1.9259  1.6428 
H  -3.2818  -1.8829  2.7896 
H  -3.4034000000000004  -3.165  1.8398 
C  -2.8344000000000005  -1.9833  -0.5257 
H  -2.2032000000000003  -1.5692  -1.1511 
H  -3.7457000000000003  -1.6964  -0.7454 
H  -2.7733000000000003  -2.9585  -0.5965 
C  1.8476999999999997  -0.5741  3.5095 
H  1.5332  0.3686  3.3998 
C  3.3100999999999994  -0.6434  3.04 
H  3.6658999999999997  -1.5404  3.21 
H  3.8427999999999995  0.0168  3.5308 
H  3.354399999999999  -0.4509  2.0799 
C  1.7751000000000001  -0.9255  5.0001 
H  0.8456999999999999  -0.8764  5.3025 
H  2.3197  -0.2918  5.5122 
H  2.1160999999999994  -1.8341  5.1379 
C  -1.2263000000000002  1.338  4.633 
H  -0.26759999999999984  1.2969  4.9157 
C  -1.8448000000000002  -0.0174  5.0095 
H  -1.6866000000000003  -0.1957  5.9598 
H  -1.4334000000000002  -0.7251  4.4712 
H  -2.8095000000000003  0.0047  4.8381 
C  -1.8742  2.4635  5.4641 
H  -2.8160000000000003  2.5558  5.2113 
H  -1.4052000000000002  3.3067  5.292 
H  -1.8111000000000002  2.2428  6.4169 
C  -0.16300000000000026  3.2499  2.4192 
H  0.18400000000000016  3.1436  1.4876 
C  1.0750000000000002  3.3568  3.3281 
H  1.6483999999999996  4.0864  3.014 
H  1.5739999999999998  2.5135  3.3012 
H  0.7904  3.5379  4.2479 
C  -0.9092000000000002  4.5955  2.4478 
H  -1.3134000000000006  4.7267  3.3306 
H  -1.6116000000000001  4.5939  1.7644 
H  -0.27810000000000024  5.3231  2.2665 
C  -2.9656000000000002  2.1878  2.186 
H  -3.1198  3.1002  2.5643 
C  -4.164300000000001  1.3534  2.6543 
H  -4.994400000000001  1.7667  2.3357 
H  -4.174  1.3154  3.6336 
H  -4.0921  0.4454  2.2927 
C  -3.0163  2.3752  0.6576 
H  -2.9338  1.5026  0.2191 
H  -2.2780000000000005  2.9541  0.3753 
H  -3.8687000000000005  2.7868  0.4068 
N  -0.4991000000000003  0.4113  1.8964 
Si  -1.2172  1.699  2.7716 
