15
unq_CSD-DAMBAU-01-b
N  1.1606000000000005  -1.5116000000000005  -0.8320999999999996 
C  1.0289000000000001  -1.9820000000000002  -2.1010999999999997 
C  -0.2131999999999996  -1.8805000000000005  -2.7759 
C  -0.3907999999999996  -2.3864  -4.045 
C  0.6536  -3.0179  -4.7164 
C  1.8754999999999997  -3.1259000000000006  -4.0853 
C  2.0726000000000004  -2.6442000000000005  -2.8111999999999995 
C  2.4311  -1.7452000000000005  -0.1639999999999997 
H  -0.9356999999999998  -1.4020000000000001  -2.2354 
H  -1.1867999999999999  -2.3106999999999998  -4.3454 
H  0.5838000000000001  -3.3385000000000002  -5.507099999999999 
H  2.5385999999999997  -3.5141  -4.5283999999999995 
H  2.9323000000000006  -2.6989  -2.4082999999999997 
H  2.3885000000000005  -1.4342000000000006  0.7811000000000003 
H  3.1887  -1.2698999999999998  -0.5718999999999999 
