9
unq_CSD-YAZNEU-01-a
S  -0.5293000000000001  -1.2687000000000008  2.9128999999999996 
F  -1.4965000000000002  0.08719999999999928  4.9582 
F  -2.9286000000000003  -0.36790000000000056  3.4202000000000004 
F  -1.4682  1.1725999999999992  3.1243999999999996 
O  -0.8849  -2.4639000000000006  3.6342999999999996 
O  0.7542  -0.6917000000000009  3.1806 
N  -0.8383000000000003  -1.3289000000000009  1.4051999999999998 
H  -1.4263  -1.8577000000000004  1.2705000000000002 
C  -1.6573000000000002  -0.021700000000000053  3.6470000000000002 
