20
unq_CSD-YELNEL-01-a
C  2.2566000000000006  -3.4664  -0.17120000000000068 
C  3.1783  -2.7872000000000003  0.6041999999999996 
H  4.0025  -3.1131  0.9470999999999998 
C  2.6218000000000004  -1.5094000000000003  0.7733999999999996 
C  2.2327000000000004  -4.8645  -0.6205000000000007 
C  1.5182000000000002  -5.2301  -1.7825000000000006 
H  1.0529000000000002  -4.5721  -2.2867000000000006 
C  1.5036000000000005  -6.5489999999999995  -2.1769000000000007 
H  0.9999000000000002  -6.7972  -2.9433000000000007 
C  2.1935000000000002  -7.5054  -1.4967000000000006 
H  2.1726  -8.4071  -1.7948000000000004 
C  2.9248000000000003  -7.1673  -0.3706000000000005 
H  3.4173999999999998  -7.8329  0.09549999999999947 
C  2.9375  -5.824  0.08319999999999972 
H  3.4249  -5.5865  0.8630000000000004 
N  1.4340000000000002  -1.4073000000000002  0.14589999999999925 
N  1.2633  -2.6166  -0.41550000000000065 
H  0.5596000000000001  -2.8268000000000004  -0.8995000000000006 
O  3.0907  -0.4402000000000008  1.4456999999999995 
H  3.9160000000000004  -0.4189000000000007  1.4501999999999997 
