49
unq_CSD-YIZNAX-01-c
N  -1.9617  -0.8501000000000003  -0.1661999999999999 
H  -2.4522  -0.14590000000000103  -0.12289999999999957 
C  -2.9295  -1.8444000000000003  -0.30189999999999984 
C  -4.1515  -1.6071  -1.0049000000000001 
C  -5.0812  -2.6358000000000006  -1.1078000000000001 
H  -5.8662  -2.4776000000000007  -1.5811000000000002 
C  -4.8944  -3.8897000000000004  -0.5366 
C  -3.7096  -4.098  0.13620000000000054 
H  -3.572  -4.9302  0.5276999999999994 
C  -2.7095000000000002  -3.1431000000000004  0.264899999999999 
C  -4.4657  -0.23220000000000063  -1.6379000000000001 
C  -3.4323  0.16530000000000022  -2.7088 
H  -3.4462  -0.479000000000001  -3.4220000000000006 
H  -2.5567  0.1897000000000002  -2.3163 
H  -3.6504000000000003  1.0335999999999999  -3.0575 
C  -4.6044  0.8647999999999989  -0.5452000000000004 
H  -4.7207  1.7219999999999995  -0.9648000000000003 
H  -3.8115  0.8780999999999999  -0.0039999999999995595 
H  -5.365600000000001  0.6732999999999993  0.006000000000000227 
C  -5.8139  -0.2225999999999999  -2.3787000000000003 
H  -5.7939  -0.8688000000000002  -3.0877 
H  -5.9706  0.6510999999999996  -2.7453000000000003 
H  -6.518  -0.4419000000000004  -1.7644000000000002 
C  -5.9514  -5.0146  -0.6021999999999998 
C  -7.1728  -4.633900000000001  -1.4240000000000004 
H  -6.8985  -4.3973  -2.3122 
H  -7.6131  -3.8865  -1.0151000000000003 
H  -7.7772  -5.379300000000001  -1.4623 
C  -5.3304  -6.2644  -1.2145000000000001 
H  -5.9937000000000005  -6.956  -1.2709000000000001 
H  -4.6028  -6.563700000000001  -0.6646999999999998 
H  -5.004300000000001  -6.0603  -2.0947000000000005 
C  -6.4463  -5.3398  0.8217999999999996 
H  -7.0764000000000005  -6.0628  0.785499999999999 
H  -6.8704  -4.5651  1.1983999999999995 
H  -5.6995000000000005  -5.594  1.3696000000000002 
C  -1.3934000000000002  -3.5082000000000004  0.9824999999999999 
C  -1.3793000000000002  -4.9537  1.5046 
H  -2.0641  -5.061  2.1692 
H  -0.5226999999999999  -5.1449  1.8933 
H  -1.5417  -5.557  0.7774999999999999 
C  -1.1823000000000001  -2.6094  2.2219999999999995 
H  -1.2766000000000002  -1.6880000000000006  1.9697999999999993 
H  -0.30210000000000004  -2.7564  2.5761000000000003 
H  -1.8365  -2.8255  2.8903 
C  -0.21320000000000006  -3.3967  -0.0038000000000000256 
H  -0.2835000000000001  -4.0888  -0.6667000000000005 
H  0.6130999999999998  -3.4942  0.47529999999999895 
H  -0.23429999999999995  -2.5393  -0.43299999999999983 
