20
unq_CSD-FUVBEE-01-d
N  1.330499999999999  -0.7842000000000002  -1.1741000000000001 
N  2.2390999999999988  -2.2702999999999998  -2.9184 
N  3.5951999999999984  -0.48950000000000005  -2.1205 
B  1.145199999999999  -1.9188  -2.0752 
B  3.4875999999999987  -1.5985  -2.9927 
B  2.5623999999999985  -0.005399999999999849  -1.2659 
C  -0.19150000000000045  -2.7472000000000003  -2.2073 
C  4.657399999999999  -2.0437000000000003  -3.9605 
C  2.7784999999999993  1.3613  -0.4970000000000001 
H  2.0676999999999985  -2.9017  -3.3677 
H  4.167999999999999  -0.02839999999999998  -2.1847 
H  -0.06080000000000041  -3.4781  -2.8454 
H  -0.9094000000000007  -2.1607000000000003  -2.5245 
H  -0.434400000000001  -3.1175  -1.3326 
H  4.317799999999998  -2.7030000000000003  -4.6024 
H  5.381799999999998  -2.4417999999999997  -3.4356999999999998 
H  4.9956  -1.2606000000000002  -4.4437999999999995 
H  2.0679999999999996  1.4763000000000002  0.16880000000000006 
H  2.749599999999999  2.1037999999999997  -1.1363 
H  3.648999999999999  1.3486000000000002  -0.047699999999999854 
