32
unq_CSD-GAJMEK-01-a
N  -0.6376  -0.4074  -1.8517000000000001 
N  -1.3787999999999996  0.28710000000000013  -4.0482000000000005 
C  -1.0469  -0.006299999999999972  -2.8736000000000006 
C  -2.5645  0.9715000000000003  -4.393800000000001 
C  -2.9637  2.1552000000000002  -3.7624000000000004 
C  -4.1011  2.8109000000000006  -4.241200000000001 
H  -4.3834  3.5921  -3.8228 
C  -4.813  2.3317  -5.3141 
H  -5.5656  2.7854000000000005  -5.619 
C  -4.4013  1.1720000000000002  -5.9321 
H  -4.8772  0.8561000000000001  -6.6645 
C  -3.2958  0.46440000000000037  -5.4902 
C  -2.8743  -0.8146  -6.183800000000001 
H  -2.3253999999999997  -1.3255  -5.553000000000001 
C  -2.0058999999999996  -0.5048999999999997  -7.4016 
H  -1.7439999999999998  -1.3255  -7.8245000000000005 
H  -1.2234999999999996  -0.024099999999999788  -7.1223 
H  -2.5073  0.030100000000000016  -8.022400000000001 
C  -4.0512999999999995  -1.6978999999999997  -6.5869 
H  -3.7237999999999998  -2.4890999999999996  -7.021400000000001 
H  -4.622199999999999  -1.2147999999999999  -7.190200000000001 
H  -4.5484  -1.9448999999999999  -5.8033 
C  -2.2079  2.773  -2.6017 
H  -1.3806999999999996  2.2612  -2.4940000000000007 
C  -1.8091  4.212200000000001  -2.8723 
H  -1.3116999999999996  4.257899999999999  -3.6908000000000003 
H  -1.266  4.5342  -2.1487000000000007 
H  -2.5999  4.754099999999999  -2.944 
C  -2.9753  2.6468000000000003  -1.3088000000000006 
H  -2.4677  3.0408000000000004  -0.5950000000000006 
H  -3.1297999999999995  1.7185000000000001  -1.1168000000000005 
H  -3.819  3.1005  -1.3903000000000008 
