14
unq_CSD-GATZAE-01-a
N  0.039899999999999824  -1.9469999999999998  -0.012799999999999923 
C  0.028099999999999792  -3.0967  0.021400000000000086 
C  0.043099999999999916  -4.493399999999999  0.041300000000000114 
H  0.8160000000000003  -4.954  -0.19059999999999988 
C  -1.1082  -5.196  0.4112 
O  -2.1888  -4.7415  0.7270000000000003 
O  -0.8976999999999999  -6.561999999999999  0.3400000000000001 
C  -2.0584000000000002  -7.402200000000001  0.5634000000000001 
H  -2.0046  -7.801499999999999  1.4469000000000003 
H  -2.8618  -6.8605  0.5278 
C  -2.1333  -8.4378  -0.4252999999999998 
H  -2.9076000000000004  -8.9819  -0.2603 
H  -1.3448000000000002  -8.9832  -0.37839999999999985 
H  -2.1979  -8.0435  -1.2973999999999999 
