23
unq_CSD-GEDKOR-01-a
C  -7.6941  0.21939999999999982  6.6486 
C  -6.636799999999999  0.1735000000000002  5.5664 
C  -5.2836  0.3715999999999995  5.868399999999999 
H  -5.017099999999999  0.4822000000000002  6.7730999999999995 
C  -4.319699999999999  0.4096999999999995  4.8551 
H  -3.4063999999999997  0.5575999999999994  5.067399999999999 
C  -4.715599999999999  0.22730000000000006  3.5268999999999995 
C  -6.0594  -0.02970000000000006  3.2104999999999997 
H  -6.3193  -0.1905000000000001  2.3103 
C  -7.0051  -0.04620000000000024  4.2272 
H  -7.9167  -0.2078000000000002  4.0144 
C  -1.5547999999999997  -0.4275000000000002  3.5264000000000006 
H  -0.7516999999999996  -0.8625000000000003  3.171899999999999 
H  -2.0449999999999995  -1.0593000000000004  4.092499999999999 
H  -1.2953999999999994  0.3543999999999996  4.0573999999999995 
C  -2.4285999999999994  0.006899999999999906  2.3903 
C  -4.0966  0.722  1.1656999999999993 
H  -4.9605  1.0105999999999997  0.8966999999999992 
N  -1.9867999999999997  0.19999999999999973  1.1549999999999994 
N  -3.0561999999999996  0.6573999999999995  0.3721999999999994 
N  -3.7691999999999997  0.3149000000000002  2.4434000000000005 
O  -7.334199999999999  0.4412999999999996  7.8355999999999995 
O  -8.910499999999999  0.04349999999999987  6.2745999999999995 
