10
unq_CSD-GIXFEY-01-b
O  -1.3512  -2.6645  1.5312000000000001 
O  2.6158  -0.45689999999999986  1.8872999999999998 
N  0.5178  -1.3222  1.4369999999999994 
C  -0.20790000000000003  -2.376  1.8743999999999996 
N  0.6325  -3.1497  2.8937 
C  1.8254  -2.3476999999999997  2.9284999999999997 
H  1.9668999999999999  -2.0209  3.8304 
H  2.5882  -2.8963  2.6859 
C  1.7444  -1.2989  2.0794999999999995 
H  -0.049500000000000044  -3.4665  3.9025999999999996 
