15
unq_CSD-GOGVII-01-a
O  0.433  2.847  1.5633 
O  -2.3355  -1.7438  4.4903 
O  -2.2727  -0.33020000000000005  6.1443 
O  0.2239  3.7426  5.596 
O  1.093  4.2799  3.7056 
N  -0.3537  0.7424000000000004  1.9998 
N  -1.9975  -0.6598000000000002  4.9857 
N  0.4234  3.5268  4.3902 
C  -0.9625  -0.08320000000000016  2.8481 
H  -1.2101  -0.9274999999999998  2.5474 
C  -1.2437  0.2650000000000001  4.1669 
C  -0.807  1.4695000000000005  4.6795 
H  -0.9565  1.6978000000000004  5.5685 
C  -0.1438  2.3171000000000004  3.827 
C  0.0163  2.0188  2.4176 
