21
unq_CSD-UHALEV-01-a
N  1.4056999999999995  -0.06649999999999956  1.3858999999999995 
C  2.7464999999999993  0.45059999999999967  1.3858999999999995 
C  3.5046  -0.21390000000000065  2.3103999999999996 
C  2.7104  -1.1216000000000008  2.934100000000001 
C  2.892199999999999  -2.0540000000000003  3.992799999999999 
H  3.7532999999999994  -2.1592000000000002  4.380299999999998 
C  1.8445999999999998  -2.8015000000000008  4.4635 
H  1.9771999999999998  -3.3782000000000005  5.206199999999999 
C  0.5846  -2.7254000000000005  3.8653000000000013 
H  -0.12160000000000082  -3.2846  4.1678 
C  0.35880000000000045  -1.8118000000000007  2.8032000000000004 
H  -0.5001000000000007  -1.7252  2.4071999999999996 
C  1.4050999999999991  -1.0678  2.371600000000001 
C  3.1350999999999996  1.5443999999999996  0.5412999999999997 
H  3.3454999999999995  1.2074999999999996  -0.3543000000000003 
H  3.9244000000000003  1.9841999999999995  0.9202999999999992 
H  2.3988999999999994  2.1889000000000003  0.4834999999999994 
C  4.965  0.03059999999999974  2.4786 
H  5.4671  -0.7274000000000012  2.113200000000001 
H  5.170999999999999  0.13010000000000055  3.4319999999999986 
H  5.2165  0.849499999999999  2.0028000000000006 
