104
unq_CSD-URUWUB-01-a
Si  2.0449  0.28190000000000026  2.1413999999999995 
N  0.3849  0.16680000000000028  1.8184999999999998 
C  -1.1219000000000001  3.962600000000001  3.4091 
C  -2.6781000000000006  0.20140000000000047  4.7691 
C  -0.19920000000000115  4.4689000000000005  4.336399999999999 
H  0.6463999999999999  4.0446  4.4350000000000005 
C  -0.7695000000000007  2.7109000000000005  2.5956999999999995 
H  0.226799999999999  2.6904000000000003  2.5047 
C  -1.1857000000000006  1.4102000000000006  3.2726 
C  -2.6617000000000006  5.7039  4.0861 
H  -3.5094000000000003  6.123500000000001  3.9968999999999997 
C  -2.1936  -0.9985999999999997  4.2529 
H  -2.5431  -1.8171999999999997  4.5829 
C  -0.7962000000000007  -2.3284  2.6032999999999995 
H  0.19919999999999938  -2.3024999999999998  2.5085 
O  2.391399999999999  -0.37950000000000017  3.5824000000000003 
C  -1.2041000000000004  -1.0288999999999997  3.265 
C  -2.3481000000000005  4.5981  3.2935000000000003 
H  -2.9839  4.2756  2.6657999999999995 
C  2.641  0.1452  4.916600000000001 
C  -1.3745000000000003  -2.4318  1.1774 
C  -0.6479999999999997  0.19030000000000058  2.7994999999999997 
C  -2.1690000000000005  1.3864  4.2585999999999995 
H  -2.5028000000000006  2.2114000000000003  4.594200000000001 
C  -1.3512000000000004  2.8017000000000003  1.1793 
C  3.5390999999999995  -1.7832999999999997  0.8721000000000001 
C  -1.3118000000000007  3.798800000000001  -1.0127000000000002 
H  -0.9154999999999998  4.4006  -1.6289 
C  3.3843999999999994  2.6374000000000004  1.2323999999999997 
O  2.7552000000000003  -0.5969999999999995  0.9569999999999999 
C  -2.3227  -4.2732  3.2536 
H  -2.95  -3.9894  2.5975999999999995 
C  -2.5047000000000006  -1.7008999999999999  0.7942999999999998 
H  -2.9160000000000004  -1.1094  1.4125 
C  -0.7968000000000011  3.682200000000001  0.26529999999999987 
H  -0.053000000000000824  4.2162  0.5213000000000001 
C  -0.2203999999999997  -4.0212  4.3667 
H  0.6082000000000001  -3.5719  4.484299999999999 
C  -2.4032  3.0378999999999996  -1.3938000000000001 
H  -2.7613000000000003  3.1247999999999996  -2.2679 
C  -1.742  6.1892000000000005  4.998099999999999 
H  -1.9624000000000006  6.935200000000001  5.5442 
C  -1.1232000000000006  -3.5713  3.4129 
C  -3.0326000000000004  -1.8342  -0.48750000000000027 
H  -3.8146000000000004  -1.351  -0.7283000000000002 
C  -2.4587000000000003  2.0465999999999998  0.7867999999999999 
H  -2.8694000000000006  1.4506000000000006  1.4011 
C  -3.7589000000000006  0.2113000000000005  5.8256 
H  -4.047700000000001  1.1328000000000005  5.989800000000001 
H  -3.4077  -0.17269999999999985  6.6553 
H  -4.5224  -0.3189000000000002  5.5158000000000005 
C  -2.6045000000000007  -5.3796  4.0387 
H  -3.4247000000000005  -5.8437  3.9191999999999996 
C  -2.9648000000000003  2.1669  -0.5121000000000002 
H  -3.7044000000000006  1.6349999999999998  -0.7795000000000001 
C  -2.4265000000000008  -2.6628  -1.4147 
H  -2.7719000000000005  -2.7306  -2.2983000000000002 
C  -0.7879000000000005  -3.2752  0.2538999999999998 
H  -0.02120000000000033  -3.7796  0.49849999999999994 
C  -1.3097000000000003  -3.3918  -1.0354 
H  -0.8943000000000012  -3.9745999999999997  -1.6593 
C  3.5687999999999995  -2.1266  -0.6259000000000001 
H  2.6660000000000004  -2.3533999999999997  -0.9274000000000002 
H  4.164299999999999  -2.8916999999999997  -0.7738 
H  3.8994  -1.3552  -1.1321 
C  -1.7102000000000004  -5.8098  4.9848 
H  -1.9073000000000002  -6.5706  5.5214 
C  2.9202999999999992  -2.9404  1.6134999999999997 
H  2.812199999999999  -2.7052  2.5578 
H  3.5009999999999994  -3.7266  1.5356999999999998 
H  2.0429999999999993  -3.1437999999999997  1.2266999999999997 
C  -0.5044000000000004  5.585299999999999  5.1137999999999995 
H  0.13780000000000037  5.932799999999999  5.7224 
O  2.6088000000000005  1.7626  2.0647999999999995 
C  4.9483999999999995  -1.5501999999999998  1.3575 
H  5.399799999999999  -0.9165000000000001  0.7620999999999998 
H  5.437999999999999  -2.4  1.3594 
H  4.9251000000000005  -1.1856999999999998  2.2658 
C  3.0411  4.021300000000001  1.6968999999999999 
H  2.0853  4.184500000000001  1.5585 
H  3.5603  4.676100000000001  1.1848999999999998 
H  3.253  4.108200000000001  2.6507 
C  -0.5234000000000005  -5.1338  5.149799999999999 
H  0.09539999999999971  -5.4284  5.8078 
C  1.8987999999999996  1.3977000000000004  5.164999999999999 
H  2.176499999999999  2.0758  4.5146 
H  2.089599999999999  1.7155000000000005  6.071300000000001 
H  0.9367000000000001  1.2302  5.072100000000001 
C  4.8233999999999995  2.3259  1.4750999999999999 
H  5.0311  2.4615  2.4231000000000003 
H  5.382899999999999  2.9193  0.9308999999999998 
H  5.0014  1.3933999999999997  1.2304999999999997 
C  4.1219  0.3211000000000004  5.0322 
H  4.569099999999999  -0.5202  4.8009 
H  4.348699999999999  0.569  5.9519 
H  4.414399999999999  1.0267999999999997  4.4198 
C  3.0305  2.4022000000000006  -0.19169999999999998 
H  3.359  1.5206  -0.47040000000000015 
H  3.4437999999999995  3.0951999999999993  -0.7491000000000001 
H  2.0578000000000003  2.4360999999999997  -0.29780000000000006 
C  2.1700999999999997  -0.9567999999999994  5.8172 
H  1.1995000000000005  -1.0627999999999997  5.7224 
H  2.3863000000000003  -0.7363999999999997  6.7463999999999995 
H  2.6151  -1.7938999999999998  5.5687999999999995 
