23
unq_CSD-VADMET-01-a
S  1.1094  -2.7878999999999996  3.2103 
S  3.6656000000000004  -1.317  1.904300000000001 
O  4.014600000000001  -2.7024  2.2086000000000006 
O  4.5834  -0.6652  0.9692000000000007 
N  -0.017199999999999882  -1.35  1.4906000000000006 
N  2.2003999999999992  -1.1339000000000001  1.2735000000000003 
N  3.7657  1.6624  7.0017 
C  1.1854000000000005  -1.6942  1.9520999999999997 
C  -0.5426000000000002  -2.6097  3.2598000000000003 
C  -1.0631000000000004  -1.9505  2.1607000000000003 
C  3.6922000000000006  -0.4797  3.3915000000000006 
C  3.1765999999999996  0.8569  3.4034000000000013 
C  3.259899999999999  1.4794  4.7265000000000015 
C  3.6881999999999993  0.9252  5.854700000000001 
C  4.1709000000000005  -0.3503  5.7316 
C  4.170800000000001  -1.0960999999999999  4.656400000000001 
H  3.4881  2.5290999999999997  7.1111 
H  3.8128  1.0521  7.812000000000001 
H  -1.1505  -2.7195  4.0684000000000005 
H  -1.9599000000000002  -1.9261  1.9145000000000003 
H  2.8587999999999996  1.2597  2.7521000000000004 
H  4.5362  -0.7275  6.497500000000002 
H  4.313199999999999  -2.0726  4.6325 
