9
unq_CSD-VIYCAI-01-a
Br  -5.7065  0.6943000000000001  -1.9061000000000001 
Br  -5.672000000000001  1.2210999999999999  1.7845999999999997 
O  -2.5483000000000002  -0.027000000000001023  -2.241 
O  -2.5149999999999997  0.7123999999999988  2.2445999999999997 
N  -2.0987999999999998  0.24150000000000027  0.013700000000000045 
C  -4.3019  0.7617999999999991  0.6115999999999997 
C  -4.308400000000001  0.5829000000000004  -0.6896 
C  -2.8876999999999997  0.2225999999999999  -1.1132000000000002 
C  -2.8792  0.5723000000000003  1.0997999999999997 
