13
unq_CSD-POCPOM01-01-b
C  -2.4376000000000007  -0.3309000000000002  -1.8232 
H  -2.1099000000000006  0.4726999999999997  -2.1573 
C  -3.5794  -0.8534000000000002  -2.3776 
H  -4.0125  -0.4027000000000003  -3.0665 
C  -4.084200000000001  -2.0565  -1.9079000000000002 
C  -3.4090000000000003  -2.6666000000000003  -0.8599000000000001 
H  -3.7226000000000004  -3.4663000000000004  -0.5034999999999998 
C  -2.2798000000000007  -2.0825  -0.3532000000000002 
H  -1.8400000000000007  -2.5058000000000002  0.3492000000000002 
C  -5.3001000000000005  -2.6846  -2.5304 
N  -1.7726000000000006  -0.9253000000000002  -0.8209 
O  -5.864000000000001  -1.9763000000000002  -3.4219 
O  -5.6673  -3.8055000000000003  -2.1699 
