27
unq_CSD-GULQIP-01-b
O  -3.5959000000000003  -0.1682  -12.8167 
O  -1.7018000000000002  0.9575  -13.219899999999999 
O  -1.0684  -0.08009999999999999  -6.9856 
C  -2.1241000000000003  0.2281  -11.0023 
C  -2.2990000000000004  -0.8387  -3.5932999999999993 
H  -3.1694  -1.1236  -3.7539999999999996 
C  -3.0989  -0.10759999999999999  -10.0683 
H  -3.9702  -0.266  -10.3521 
C  -1.4892000000000003  0.02510000000000001  -8.2829 
C  -0.1726000000000001  -0.0948  -4.3606 
H  0.41999999999999993  0.1309  -5.040900000000001 
C  -2.0745000000000005  -0.41459999999999997  -6.0259 
H  -2.4556000000000004  -1.2805  -6.2407 
H  -2.7862  0.2441  -6.055999999999999 
N  -0.5663  -0.399  -2.012599999999999 
C  -2.5006000000000004  0.33799999999999997  -12.4679 
C  -1.4808000000000001  -0.4516  -4.651999999999999 
C  0.2354999999999996  -0.08189999999999999  -3.037699999999999 
H  1.1137000000000001  0.16080000000000003  -2.8514999999999997 
C  -1.8025000000000002  -0.7952  -2.3019 
H  -2.3600000000000003  -1.0551  -1.6037 
C  -2.7911  -0.2108  -8.707799999999999 
H  -3.4519  -0.4346  -8.0937 
C  -0.8237000000000001  0.49049999999999994  -10.5503 
H  -0.1636000000000002  0.7332  -11.16 
C  -0.5147000000000004  0.3909  -9.210899999999999 
H  0.3512999999999997  0.5689  -8.9226 
