10
unq_CSD-HACWOZ-01-d
O  -0.04760000000000009  3.4124999999999996  -0.6746999999999996 
N  2.176400000000001  3.5774999999999997  -1.3454999999999995 
C  1.1097000000000001  2.9345  -0.8003999999999998 
N  1.5655999999999999  1.7022999999999993  -0.45449999999999946 
N  2.8420000000000005  1.6385999999999994  -0.8020999999999994 
N  3.2445000000000004  2.7546999999999997  -1.3404999999999987 
C  2.220700000000001  4.889899999999999  -1.9486999999999988 
H  3.0493000000000006  4.9962  -2.4223 
H  2.1546000000000003  5.558299999999999  -1.2623999999999995 
H  1.4872000000000005  4.985799999999999  -2.5618 
