39
unq_CSD-YUVFAY-01-a
N  1.3915000000000002  1.1936999999999998  0.7888000000000002 
C  2.058  2.2337000000000007  0.13240000000000007 
C  3.0241  2.7537000000000003  0.9722 
C  2.9537  2.0284999999999993  2.1993 
C  1.9558000000000002  1.0831  2.0637 
C  1.6817  2.6851000000000003  -1.2741 
C  2.8832999999999998  2.537000000000001  -2.2248 
H  3.6197999999999997  3.1012000000000004  -1.9104 
H  2.6218  2.8137000000000008  -3.1277 
H  3.1734  1.6013000000000002  -2.2413 
C  0.5477000000000001  1.8600000000000003  -1.8812 
H  0.8302  0.9246999999999996  -1.9592 
H  0.3284000000000001  2.2109000000000005  -2.77 
H  -0.24239999999999998  1.9154999999999998  -1.3035 
C  1.1997  4.147600000000001  -1.2663 
H  0.4091000000000001  4.2280999999999995  -0.6930000000000001 
H  0.9721000000000002  4.4207  -2.1790000000000003 
H  1.9129000000000003  4.725  -0.9213 
C  3.9741  3.9010999999999996  0.7471000000000001 
H  3.8796999999999997  4.2279  -0.1716000000000002 
H  4.8934999999999995  3.5968  0.8931 
H  3.766  4.624700000000001  1.3742 
C  3.7728  2.373900000000001  3.415 
H  3.2719  2.9985  3.9798999999999998 
H  4.6145  2.7901000000000007  3.1337 
H  3.9650999999999996  1.5572  3.9225000000000003 
C  1.4836  0.06489999999999974  3.0970000000000004 
C  1.1122  0.7866999999999997  4.4062 
H  1.9239  1.1416000000000004  4.8248 
H  0.6784000000000001  0.15420000000000034  5.0165 
H  0.4975  1.5237999999999996  4.2094 
C  0.2395  -0.6989000000000001  2.6494999999999997 
H  -0.4679  -0.06299999999999972  2.4145000000000003 
H  -0.07039999999999996  -1.2751000000000001  3.3791 
H  0.4571  -1.2487000000000004  1.8686999999999996 
C  2.5789  -0.9797000000000002  3.3663999999999996 
H  2.7946  -1.4495000000000005  2.5342000000000002 
H  2.2588  -1.6250999999999998  4.0312 
H  3.3811999999999998  -0.5313999999999997  3.7064000000000004 
