36
unq_CSD-ZIGKOS-01-a
N  -0.36739999999999995  0.14659999999999984  -2.0732999999999997 
N  1.6686  -0.9592  -3.7037999999999993 
Si  -0.09539999999999993  -0.8925000000000001  -3.3977999999999993 
C  -0.8806999999999998  -0.31020000000000003  -4.994599999999999 
H  -1.8231  -0.4899  -4.969799999999999 
H  -0.4841  -0.7757000000000001  -5.732899999999999 
H  -0.7378  0.6332999999999998  -5.093699999999999 
C  -0.7568999999999999  -2.5891  -3.062099999999999 
H  -0.3255999999999999  -2.9522  -2.2840999999999987 
H  -0.5841999999999998  -3.1544000000000003  -3.8176999999999994 
H  -1.7030999999999998  -2.5379  -2.9084999999999983 
C  -1.2247000000000001  1.2759999999999998  -2.1552999999999987 
C  -2.5495  1.1924000000000001  -2.628499999999999 
H  -2.8728  0.38119999999999976  -2.9480999999999993 
C  -3.3685  2.3006  -2.6259999999999994 
H  -4.2353000000000005  2.2295  -2.955499999999999 
C  -2.9255000000000004  3.5037000000000003  -2.1453999999999986 
H  -3.489  4.2437  -2.1378999999999984 
C  -1.6424  3.6034999999999995  -1.6745999999999999 
H  -1.3355  4.4147  -1.3401999999999994 
C  -0.8001  2.5053  -1.6919999999999984 
H  0.07240000000000002  2.5976  -1.3847999999999985 
C  2.3978  0.18399999999999972  -4.075399999999999 
C  3.6801000000000004  -0.22160000000000002  -4.313199999999999 
H  4.3819  0.3312999999999997  -4.575899999999999 
C  3.7674000000000003  -1.5757  -4.107599999999999 
H  4.5354  -2.0899  -4.2116999999999996 
C  2.5507  -2.0387000000000004  -3.7284999999999995 
C  1.8347000000000002  1.5431  -4.169499999999999 
H  2.5428  2.1883  -4.110099999999999 
H  1.2141000000000002  1.6828000000000003  -3.448599999999999 
H  1.3781  1.6429  -5.006999999999999 
C  2.2051  -3.4302  -3.344499999999999 
H  2.99  -3.9793000000000003  -3.394099999999999 
H  1.5375  -3.7709  -3.944099999999999 
H  1.8648  -3.4389000000000003  -2.4475999999999996 
