31
unq_CSD-DIXCIW-01-a
N  2.0991  0.026499999999999996  0.3719999999999999 
N  2.4465000000000003  1.1292  -1.6274 
C  2.9162999999999997  0.5627  -0.5522 
C  2.6822  -0.6597  1.4604000000000004 
C  3.9945000000000004  -1.096  1.5444 
C  4.4695  -1.8018999999999998  2.6554999999999995 
C  3.6429  -2.0958  3.7156 
C  2.3282  -1.6762000000000001  3.6344999999999996 
C  1.863  -0.9809  2.5356 
C  4.1654  -2.8774  4.901299999999999 
C  3.3563  1.4594999999999998  -2.6271 
C  3.075  2.5532  -3.4484 
C  3.9126000000000003  2.9076  -4.4849 
C  5.0556  2.1835  -4.7625 
C  5.3392  1.0611000000000002  -3.9704 
C  4.4953  0.7111999999999999  -2.9283 
C  5.9457  2.5364999999999998  -5.9434000000000005 
H  3.9452  0.5627  -0.42379999999999995 
H  4.5956  -0.8612  0.8411999999999997 
H  5.6304  -2.1033  2.7007999999999996 
H  1.8287  -1.7700999999999998  4.2867999999999995 
H  0.9772000000000003  -0.8915  2.5498 
H  4.9119  -2.7244  5.042 
H  3.6900000000000004  -2.9062  5.4573 
H  2.3871  3.0924  -3.2275 
H  3.8024000000000004  3.7588999999999997  -5.068300000000001 
H  6.3474  0.6536  -4.1243 
H  4.5477  -0.1189  -2.3496 
H  5.731  3.4863  -6.0029 
H  6.9221  2.1835  -5.6442 
H  5.7798  2.1077999999999997  -6.692 
