11
unq_CSD-DOMQAZ-01-a
N  -1.2673  0.6196000000000002  1.363 
N  -1.0043000000000002  2.812899999999999  0.6442000000000001 
N  -2.2922000000000002  2.3385999999999996  2.6006000000000005 
C  -1.5168000000000001  1.974499999999999  1.5484000000000004 
C  -1.2315  4.1023  0.8401999999999998 
C  -2.0500000000000003  4.6028  1.8363999999999998 
C  -2.5278  3.6394  2.7059 
H  -1.6749  0.043699999999999406  1.8538000000000001 
H  -0.8141  4.7095  0.2734000000000001 
H  -2.2600000000000002  5.504899999999999  1.9151000000000002 
H  -3.0540000000000003  3.9244000000000003  3.4181000000000004 
