33
unq_CSD-DUMZAO-01-a
O  -0.8837000000000002  -13.252500000000001  -10.1029 
O  -0.5497000000000001  -11.483600000000001  -11.386 
N  0.043400000000000105  -1.0724999999999998  -2.0147999999999993 
C  -0.0495000000000001  -0.5269000000000013  -3.2544000000000004 
H  -0.06630000000000003  0.41189999999999927  -3.3987 
N  -0.06820000000000004  -2.588700000000001  -3.5767000000000007 
N  -0.6552000000000002  -8.7028  -5.6961 
N  -0.3210000000000002  -7.696300000000001  -7.6699 
H  -0.1578999999999997  -7.1012  -8.2698 
C  0.021300000000000097  -2.3726000000000003  -2.258800000000001 
H  0.061799999999999855  -3.0519  -1.5953999999999997 
N  -0.11460000000000026  -1.3915000000000006  -4.241300000000001 
C  -0.1383000000000001  -3.8369  -4.2761 
C  0.024399999999999977  -3.8530999999999995  -5.6538 
H  0.19449999999999967  -3.0496  -6.1304 
C  -0.0658000000000003  -5.064400000000001  -6.3196 
H  0.04319999999999968  -5.0852  -7.2629 
C  -0.3111999999999999  -6.2502  -5.6351 
C  -0.4702000000000002  -6.1995000000000005  -4.2486999999999995 
H  -0.6455000000000002  -7.0  -3.7683 
C  -0.37550000000000017  -4.9963999999999995  -3.5604999999999993 
H  -0.4721000000000002  -4.9708000000000006  -2.6159 
C  -0.4294000000000002  -7.539300000000001  -6.3333 
C  -0.48649999999999993  -9.045300000000001  -7.9325 
C  -0.4782000000000002  -9.7743  -9.128499999999999 
H  -0.3349000000000002  -9.3511  -9.966000000000001 
C  -0.6898  -11.147400000000001  -9.0302 
C  -0.9112  -11.7553  -7.7807 
H  -1.0605000000000002  -12.6923  -7.7471 
C  -0.9196  -11.0366  -6.6046000000000005 
H  -1.0716999999999999  -11.4611  -5.7683 
C  -0.6953  -9.6559  -6.6942 
C  -0.7128000000000001  -12.0152  -10.257200000000001 
