16
unq_CSD-DUVXOH-01-a
N  -5.7829999999999995  -1.307  2.2565 
C  -6.0479  0.0236  2.066 
N  -4.9939  0.8467  1.7403 
C  -3.7557  0.2291  1.5246 
C  -3.5380000000000003  -1.112  1.696 
C  -4.5995  -2.0025  2.0824 
N  -2.2465  -1.3716  1.3437 
N  -1.7461000000000002  -0.2024  1.0002 
N  -2.6471  0.8411  1.0931 
O  -7.2043  0.4512  2.1596 
C  -5.1662  2.283  1.599 
O  -4.5447999999999995  -3.2115  2.2394 
H  -6.551  -1.8517  2.5672 
H  -5.6343  2.6655  2.4443 
H  -4.24  2.734  1.4884 
H  -5.7494  2.4823  0.7647 
