13
unq_CSD-EBEBIY-01-a
N  0.5275  -0.0278  -1.9302 
N  -0.4162  -0.2511  -2.9162 
N  -0.2824  -0.4284  -5.2953 
N  1.6153  -0.0626  -3.8766 
C  0.3066  -0.244  -4.0095 
N  -1.754  -0.5617  -6.9058 
N  -0.4788  -0.7412  -7.4467 
C  -1.5866  -0.3809  -5.617 
C  0.3646  -0.6507  -6.4597 
C  1.6994  0.0653  -2.5442 
H  -2.291  -0.2028  -5.0106 
H  1.273  -0.6746  -6.4721 
H  2.5132  0.258  -2.0878 
