30
unq_CSD-KIZFEE-01-b
O  0.09989999999999988  -3.0901  0.3200000000000003 
O  -0.18969999999999998  -0.0491  -3.0744 
N  -0.05109999999999992  -1.5343  -1.3884999999999996 
N  -0.2439  -2.2524  -3.6087 
C  0.04410000000000003  -2.837  -0.9222000000000001 
C  0.011600000000000055  -3.9033  -1.9318999999999997 
C  -0.043400000000000105  -3.5642  -3.2192999999999996 
C  -0.17270000000000008  -1.2536  -2.5854 
C  0.15949999999999998  -5.298  -1.4488999999999996 
O  -1.1120999999999999  -2.9305000000000003  -5.6568 
O  -0.6513  -5.3149  -7.3125 
N  0.2966  -1.0648  -7.7321 
N  0.10070000000000001  -1.0342  -8.9516 
N  0.14480000000000004  -0.9053  -10.0549 
C  -0.37949999999999995  -1.9025999999999998  -5.0062999999999995 
C  -0.4684999999999999  -3.2297000000000002  -6.8929 
C  0.6992999999999998  -2.257  -7.051399999999999 
C  0.9494  -1.8105  -5.7187 
C  0.2811000000000001  -4.7441  -6.9548 
H  0.43289999999999984  -4.145700000000001  -3.8185 
H  0.048799999999999955  -5.9577  -2.1386 
H  1.0616999999999999  -5.3241000000000005  -1.1243999999999996 
H  -0.4468000000000001  -5.4852  -0.7275 
H  -0.8611  -1.0756000000000001  -5.075699999999999 
H  -1.0648  -3.1223  -7.6385 
H  1.4799  -2.705  -7.385 
H  1.6060999999999999  -2.3352000000000004  -5.2554 
H  1.2499  -0.8991  -5.763999999999999 
H  0.9974000000000001  -4.7686  -7.594799999999999 
H  0.5854000000000001  -5.054  -6.0991 
