17
unq_CSD-KOKVEM-01-a
N  0.08529999999999993  1.6887000000000008  -1.6781000000000006 
C  -0.1593  1.3120000000000012  -2.9504 
N  0.05459999999999998  2.2302  -3.9944999999999995 
C  0.38770000000000004  3.5420999999999996  -3.7680999999999996 
N  0.5639  3.8843999999999994  -2.4496 
C  0.48109999999999997  2.9521999999999995  -1.3955000000000002 
O  -0.5492999999999999  0.1839000000000004  -3.2591 
C  -0.09620000000000006  1.7767999999999997  -5.3821 
H  0.11370000000000002  0.8662000000000001  -5.452 
H  -0.99  1.8978000000000002  -5.6748 
H  0.4807  2.257200000000001  -5.9385 
O  0.5246  4.3535  -4.6781999999999995 
C  0.8529  5.2926  -2.1467 
H  0.7027  5.4575  -1.2339000000000002 
H  1.7492  5.509  -2.3816999999999995 
H  0.29900000000000004  5.8482  -2.6550000000000002 
O  0.7483  3.3381000000000007  -0.25980000000000025 
