36
unq_CSD-KOQHOP-01-a
O  -5.1769  0.15310000000000024  -0.07940000000000003 
O  -3.760300000000001  2.5648  -3.5693 
N  -2.899  -0.2290000000000001  -0.12629999999999997 
N  -1.7751000000000001  0.19890000000000008  -0.8298000000000001 
C  -4.073  0.39590000000000014  -0.5808 
C  -3.6140999999999996  1.2328000000000001  -1.6668 
C  -4.3405000000000005  2.1087  -2.5801999999999996 
C  -2.7176  -1.0526999999999997  1.0030999999999999 
C  -1.6974  -2.0060000000000002  1.0053 
H  -1.1677  -2.1345  0.22729999999999997 
C  -1.4527  -2.7731000000000003  2.1473 
H  -0.7606000000000002  -3.4223  2.1418 
C  -2.2186000000000003  -2.5875000000000004  3.2893999999999997 
H  -2.0502000000000002  -3.0984  4.0718 
C  -3.2336  -1.6425999999999998  3.2706 
H  -3.7569  -1.513  4.0527 
C  -3.505  -0.8871000000000002  2.1488 
H  -4.219799999999999  -0.25950000000000006  2.1536999999999997 
C  -2.2085999999999997  1.0622000000000003  -1.7232999999999998 
C  -1.2043  1.7694999999999999  -2.5757000000000003 
H  -0.30130000000000035  1.5681000000000003  -2.2522 
H  -1.3594  2.7373000000000003  -2.5300000000000002 
H  -1.2929000000000004  1.468  -3.5039 
C  -5.816599999999999  2.5121  -2.3418 
C  -5.9808  3.0902000000000003  -0.9337 
H  -6.8939  3.4299  -0.8241 
H  -5.3414  3.8223000000000003  -0.8039000000000001 
H  -5.8119  2.387  -0.271 
C  -6.7096  1.2752  -2.5537 
H  -7.651300000000001  1.5312000000000001  -2.4621000000000004 
H  -6.489000000000001  0.5937000000000001  -1.8839 
H  -6.555999999999999  0.9123000000000001  -3.4515000000000002 
C  -6.2079  3.5708  -3.3722000000000003 
H  -7.149900000000001  3.8144  -3.25 
H  -6.0778  3.2113  -4.2752 
H  -5.6472999999999995  4.3647  -3.2523999999999997 
