17
unq_CSD-KUWWAB-01-a
C  1.2745000000000002  2.5988000000000007  0.6234999999999999 
C  2.1992000000000003  4.458400000000001  -0.49820000000000003 
C  1.9567000000000005  4.027200000000001  -1.7796 
H  1.4334000000000002  3.2486999999999995  -1.9291 
C  2.4766000000000004  4.7255  -2.8477 
H  2.2979000000000003  4.435199999999998  -3.7344 
C  3.2595  5.850899999999999  -2.63 
C  3.4845000000000006  6.273  -1.4009 
H  4.0167  7.047499999999999  -1.2587000000000002 
C  2.9441000000000006  5.584  -0.29510000000000003 
H  3.0952  5.902899999999999  0.5872999999999999 
C  4.7887  7.3688  -3.6372 
N  0.9221000000000004  1.5213999999999999  0.8084 
N  1.6943000000000001  3.787700000000001  0.6323000000000001 
N  3.7959000000000005  6.514499999999998  -3.7489 
N  5.6214  8.1373  -3.5254 
H  3.373  6.229700000000001  -4.8214 
