21
unq_CSD-KUZKEV-01-a
S  1.0138000000000003  2.6046000000000005  -1.8053 
S  3.7681999999999998  3.1645000000000003  -0.5383 
O  1.9518  1.6859000000000002  -2.4036 
O  0.45989999999999975  3.6106  -2.6782 
O  6.184699999999999  3.2334999999999994  0.3942000000000001 
N  -0.029600000000000293  1.8567999999999998  -0.9577999999999998 
N  1.6298999999999997  4.482200000000001  0.03330000000000011 
N  2.6453  4.987500000000001  0.7938999999999998 
N  4.8873  4.8659  1.3513000000000002 
C  2.0853999999999995  3.5280000000000005  -0.7082999999999999 
C  3.8623  4.4353  0.6519000000000004 
C  6.063600000000001  4.2073  1.1508000000000003 
C  7.223700000000001  4.714  1.9339000000000004 
C  2.3470999999999997  6.071300000000001  1.7252 
H  -0.5685000000000002  2.3613  -0.7816999999999998 
H  8.0531  4.6228  1.3119000000000005 
H  7.0504  5.610799999999999  2.2091000000000003 
H  7.354900000000001  4.200799999999999  2.6102 
H  1.4847999999999995  6.299900000000001  1.5906000000000002 
H  2.3831  5.7136  2.6986 
H  3.0883  6.767200000000001  1.6450000000000005 
