44
unq_CSD-POPXAT-01-e
P  -0.43859999999999966  1.8574  -2.9625 
N  -0.2544999999999997  0.8953  -1.6578 
C  -0.9739999999999998  3.4919000000000002  -2.4783 
C  -1.9339  3.6291  -1.476 
C  -2.4699  4.8794  -1.1702 
C  -2.1174999999999997  5.8857  -1.9177 
C  -1.17  5.779  -2.937 
C  -0.5871999999999997  4.5744  -3.2258 
C  -3.4886  4.9404  -0.08289999999999997 
C  -1.6757  1.2201  -4.0582 
C  -1.9200999999999997  -0.10640000000000002  -4.1075 
C  -2.932  -0.64  -5.0266 
C  -3.5745  0.25949999999999995  -5.7911 
C  -3.3752  1.5554999999999999  -5.824999999999999 
C  -2.3677  2.0892  -4.8907 
C  -3.2298999999999998  -2.0885  -5.0096 
C  1.1471999999999998  1.9366999999999999  -3.8034 
C  1.2194000000000003  1.8909999999999998  -5.1965 
C  2.4906000000000006  1.9215000000000002  -5.8420000000000005 
C  3.6282000000000005  2.0587  -5.0606 
C  3.4893  2.1502  -3.7355 
C  2.2428  2.0739  -3.0559 
C  2.5996000000000006  1.8147  -7.303 
H  -2.2477  2.8209999999999997  -0.9832999999999998 
H  -2.5405999999999995  6.7853  -1.7648 
H  -0.903  6.5871  -3.4467 
H  0.08790000000000031  4.4830000000000005  -3.9562999999999997 
H  -3.7813  5.8857  0.03600000000000003 
H  -3.0945  4.589700000000001  0.7664999999999997 
H  -4.2600999999999996  4.3762  -0.3378000000000001 
H  -1.3977999999999997  -0.7315  -3.5248 
H  -4.2561  -0.10640000000000002  -6.4196 
H  -3.9063999999999997  2.1502  -6.4366 
H  -2.1704999999999997  3.0650000000000004  -4.8567 
H  -3.9313  -2.2866999999999997  -5.6891 
H  -2.3983  -2.5915999999999997  -5.2644 
H  -3.54  -2.3629  -4.1091999999999995 
H  0.39280000000000026  1.8452  -5.7401 
H  4.525799999999999  2.0892  -5.4853 
H  4.3159  2.2874  -3.1917999999999997 
H  3.0596000000000005  2.1807  -2.4783 
H  3.5567  1.8452  -7.5748999999999995 
H  2.1057000000000006  2.5770999999999997  -7.7447 
H  2.2046  0.9457  -7.6088000000000005 
