24
unq_CSD-LAMFUE-01-a
C  4.7384  -0.8228  -2.9233 
B  3.8771999999999998  -0.4150999999999998  -1.6625999999999994 
N  2.5333  -0.5871  -1.6033999999999997 
Br  4.8957  0.3841000000000001  -0.15109999999999957 
C  6.0085  -2.4482999999999997  -4.189399999999999 
H  6.3358  -3.3343  -4.283799999999999 
C  6.3313  -1.5145999999999997  -5.153499999999999 
C  5.8179  -0.23619999999999974  -5.010999999999999 
H  6.004  0.4118000000000004  -5.6804 
C  5.0362  0.13000000000000034  -3.9143999999999997 
C  4.5093  1.5299999999999998  -3.8012999999999995 
H  4.6785  2.0114000000000005  -4.6377999999999995 
H  4.9608  1.9903  -3.0626999999999995 
H  3.5452  1.5032  -3.6285 
C  4.8908  -3.1835999999999998  -2.0544999999999995 
H  3.9186  -3.2916  -1.9951999999999996 
H  5.2431  -2.9082  -1.1827999999999994 
H  5.2985  -4.0355  -2.3172999999999995 
C  7.2375  -1.8661999999999999  -6.3034 
H  6.8509  -1.5309  -7.1389 
H  7.336  -2.8399  -6.3564 
H  8.1172  -1.4566  -6.1631 
C  5.217  -2.1357  -3.0808999999999997 
N  1.5207  -0.31610000000000005  -0.8704000000000001 
