45
unq_CSD-LAQBAJ-01-b
N  -0.6256000000000004  -1.3617  1.3549999999999969 
C  0.17939999999999934  -2.0402000000000005  2.270199999999999 
C  1.5406999999999993  -1.8989000000000003  2.5294999999999987 
H  2.053  -1.2852000000000006  2.052599999999998 
C  2.1185  -2.6902000000000004  3.5124999999999993 
H  3.0271  -2.5948  3.687199999999997 
C  1.3784  -3.6438  4.2639 
C  0.028999999999999915  -3.7743  3.988199999999999 
H  -0.47790000000000044  -4.393700000000001  4.461299999999998 
C  -0.5810000000000004  -2.9853  3.007399999999997 
C  -1.9330000000000003  -2.8579000000000003  2.543199999999999 
C  -3.1378000000000004  -3.4674  2.907399999999999 
H  -3.1383  -4.1321  3.5573999999999977 
C  -4.3327  -3.0933  2.3079 
C  -4.279100000000001  -2.09  1.3002000000000002 
H  -5.0704  -1.8346  0.8843999999999994 
C  -3.1037000000000003  -1.4766000000000004  0.9095999999999975 
H  -3.1069000000000004  -0.8266  0.24489999999999768 
C  -1.9074000000000004  -1.8532000000000002  1.5351 
C  2.0092999999999996  -4.4937000000000005  5.374499999999998 
C  1.3622999999999994  -4.1028  6.717299999999998 
H  1.5316  -3.1764  6.8963 
H  1.7370999999999999  -4.6383  7.420399999999997 
H  0.4144999999999994  -4.2536000000000005  6.672799999999999 
C  3.5218  -4.3013  5.4788 
H  3.931799999999999  -4.5291  4.641499999999997 
H  3.8697999999999997  -4.8722  6.167999999999999 
H  3.714599999999999  -3.3857000000000004  5.692 
C  1.7447  -5.9941  5.136699999999998 
H  2.144  -6.2603  4.305 
H  0.7984999999999998  -6.151  5.103099999999998 
H  2.1284  -6.5034  5.853099999999998 
C  -5.6779  -3.6304000000000003  2.7790999999999997 
C  -5.5434  -4.5814  3.982899999999997 
H  -4.9602  -5.3077000000000005  3.7545 
H  -6.408  -4.9261  4.218499999999999 
H  -5.178  -4.1013  4.730499999999999 
C  -6.5403  -2.4270000000000005  3.2064999999999984 
H  -6.8413  -1.9561000000000002  2.4252000000000002 
H  -6.0168  -1.8377  3.7545 
H  -7.2986  -2.7394000000000003  3.7064999999999984 
C  -6.4073  -4.3829  1.6583999999999968 
H  -5.9308000000000005  -5.1908  1.4516999999999989 
H  -6.450200000000001  -3.8274000000000004  0.8746999999999971 
H  -7.2971  -4.6014  1.9443999999999981 
