27
unq_CSD-LATYUC-01-a
F  -6.4434000000000005  3.1765  8.594899999999999 
C  -4.1389000000000005  2.0656999999999996  1.4652999999999992 
H  -4.987500000000001  1.7651000000000001  1.1625999999999994 
C  -1.9330000000000007  1.8684999999999998  1.4917999999999996 
C  -1.8080000000000007  2.9841999999999995  2.3173999999999992 
C  -2.9914000000000005  3.6365999999999996  2.7139999999999986 
C  0.12979999999999947  2.2777000000000003  1.8659999999999997 
H  1.0763999999999996  2.2038  1.8330000000000002 
C  -4.1498  5.4124  3.966099999999999 
H  -4.8344000000000005  5.393  3.251099999999999 
H  -3.9323000000000006  6.3617  4.144299999999999 
C  -4.7468  4.8083  5.222899999999999 
C  -6.0009  5.2200999999999995  5.653500000000001 
H  -6.4714  5.8785  5.1553 
C  -6.5807  4.689  6.793800000000001 
H  -7.4391  4.9742  7.082699999999999 
C  -5.8832  3.7428999999999997  7.490500000000001 
C  -4.6403  3.3194  7.1174 
H  -4.173100000000001  2.6693999999999996  7.629200000000001 
C  -4.072900000000001  3.8628  5.968699999999998 
H  -3.2082000000000006  3.5784000000000002  5.693999999999999 
N  -4.1646  3.1381999999999994  2.279 
N  -3.1027000000000005  1.3701999999999999  1.0268999999999995 
N  -2.9548000000000005  4.7463  3.4826999999999995 
H  -2.1703  5.0806  3.6999999999999993 
N  -0.47170000000000023  3.2476000000000003  2.5481999999999996 
N  -0.6753  1.4013000000000002  1.2200999999999986 
