37
unq_CSD-EHICUT-01-a
S  -0.8523999999999998  2.1848  2.3263 
O  0.21689999999999987  2.9214  1.6750000000000007 
O  -2.1681999999999997  2.7713  2.2698 
N  -1.5448999999999997  -1.4203000000000001  1.497799999999998 
N  -0.8458999999999999  0.7075  1.713000000000001 
C  -2.2870999999999997  -2.4979  1.8293999999999997 
C  -3.2201999999999997  -2.3991000000000002  2.854599999999998 
H  -3.7264  -3.1438  3.0874999999999986 
C  -3.4021  -1.2264000000000002  3.5152 
H  -4.0434  -1.1715000000000002  4.186 
C  -2.6526999999999994  -0.13770000000000016  3.2089999999999996 
H  -2.7554  0.6654999999999998  3.667099999999998 
C  -1.7033999999999998  -0.27680000000000016  2.1533999999999978 
C  -1.9933999999999998  -3.7658  1.1180999999999983 
H  -1.7069999999999999  -3.5719000000000003  0.22199999999999775 
H  -2.7842  -4.309200000000001  1.0902999999999992 
H  -1.2962999999999996  -4.2397  1.5812999999999988 
C  -0.4009999999999998  2.0870999999999995  4.046800000000001 
C  -1.1899999999999995  2.6761999999999997  5.046699999999998 
C  -0.7666999999999997  2.5243  6.342700000000001 
H  -1.2926999999999995  2.9048999999999996  7.010999999999999 
C  0.3520000000000003  1.8712  6.73 
C  1.1950000000000003  1.3662  5.6846 
H  2.0219000000000005  0.9965999999999999  5.897199999999998 
C  0.7968999999999999  1.4228999999999998  4.375899999999998 
C  1.6994000000000007  0.8300999999999998  3.3305000000000007 
H  1.2455000000000007  0.10739999999999972  2.8874999999999993 
H  2.4975000000000005  0.4971000000000001  3.748100000000001 
H  1.9300000000000006  1.5034  2.6875 
C  -2.4347999999999996  3.4684  4.915099999999999 
H  -2.3087  4.1563  4.259399999999999 
H  -2.6491  3.8690999999999995  5.7605 
H  -3.1534999999999997  2.8921  4.644199999999998 
C  0.9068000000000005  1.7046999999999999  8.112099999999998 
H  0.5411000000000001  2.3815999999999997  8.686699999999998 
H  1.8634000000000004  1.7888000000000002  8.0842 
H  0.6707999999999998  0.8373999999999997  8.448799999999999 
