31
unq_CSD-ERUZEW-01-a
S  -2.1683  -3.2871000000000006  -0.21979999999999977 
O  -2.9418  -4.0436000000000005  0.7325999999999997 
O  -1.7285  -4.0266  -1.3628999999999998 
N  1.0413  -1.6028000000000002  0.601 
N  -1.0471000000000001  -2.4108  0.4401999999999999 
C  2.3437  -1.6736000000000004  0.8349000000000002 
H  2.8447  -0.8904000000000005  0.8251999999999997 
C  2.9697  -2.8499  1.0883000000000003 
H  3.8834  -2.8741000000000003  1.2654000000000005 
C  2.2332  -3.9929000000000006  1.077 
H  2.6601999999999997  -4.8055  1.2279999999999998 
C  0.8744  -3.9864000000000006  0.8495999999999997 
C  0.07399999999999995  -5.2648  0.8967 
H  0.6231  -5.9732  1.2410000000000005 
H  -0.21989999999999998  -5.4895000000000005  0.009700000000000486 
H  -0.6886000000000001  -5.143700000000001  1.4668 
C  0.2639999999999999  -2.7339  0.5994000000000002 
C  -3.2698  -2.0310000000000006  -0.8154999999999997 
C  -3.8974  -1.1691000000000003  0.07150000000000034 
H  -3.7121000000000004  -1.2141000000000002  0.9828000000000001 
C  -4.8019  -0.2416999999999998  -0.41100000000000003 
H  -5.202  0.35360000000000014  0.1802999999999999 
C  -5.1269  -0.18120000000000047  -1.7559999999999998 
C  -4.4824  -1.0302000000000007  -2.6071999999999997 
H  -4.6647  -0.9831000000000003  -3.5185 
C  -3.5566000000000004  -1.9668  -2.1459 
H  -3.1377  -2.5446  -2.7436 
C  -6.1538  0.8256999999999994  -2.2417 
H  -5.8675  1.1975999999999996  -3.0799 
H  -6.244  1.5280000000000005  -1.5936 
H  -7.0007  0.38839999999999897  -2.3587 
