12
unq_CSD-HPXACD10-01-a
C  3.0718  0.4323  5.1248 
C  3.3963  0.48130000000000006  2.9116999999999997 
C  2.0872  0.06280000000000002  2.6609 
C  1.1996  -0.2034  3.7329999999999997 
H  1.4349  -0.030299999999999994  5.637300000000001 
H  3.2953  0.5351  6.1902 
N  1.7784  0.027600000000000013  4.9522 
N  3.9137000000000004  0.6661  4.1739999999999995 
N  1.9272  0.031700000000000006  1.3136 
N  3.0994  0.40890000000000004  0.7903000000000002 
N  3.9999000000000002  0.6833  1.7356999999999996 
O  0.03810000000000002  -0.5888  3.6480999999999995 
