92
unq_CSD-HUGBAO-01-a
Si  -2.6281  -0.7292999999999998  -1.7062 
N  -1.9123999999999999  -0.13660000000000005  -0.2559 
C  -3.4245  -2.9889  2.6069 
C  -3.0796  -0.5657999999999999  1.8784 
C  -2.5388  -1.9916999999999998  1.8617 
H  -2.528  -2.2808  0.9039999999999999 
C  -1.0952000000000002  -2.0213  2.3401 
C  -3.0135  1.6888000000000005  1.0055999999999998 
C  -3.8146  -0.1097999999999999  2.9614 
H  -4.0919  -0.7304999999999997  3.6241 
C  -0.2797999999999998  -3.0984  1.9899 
H  -0.6416000000000004  -3.8093  1.4757000000000002 
C  -4.1584  1.229  3.1079000000000003 
C  -0.5377999999999998  -1.0099999999999998  3.1214999999999997 
H  -1.0716  -0.2688999999999999  3.3783 
C  -3.742  2.1062000000000003  2.1193 
H  -3.9619  3.0251  2.2036000000000002 
C  -3.1517  -3.3979  3.9048000000000003 
H  -2.3955  -3.0450999999999997  4.3574 
C  -2.4639  2.7132000000000005  0.023600000000000065 
H  -2.3894  2.2422000000000004  -0.856 
C  -1.0521000000000003  3.1408000000000005  0.39759999999999995 
C  1.5871000000000004  -2.1296  3.1462999999999997 
H  2.5000999999999998  -2.1561  3.4082000000000003 
C  -1.6532999999999998  -2.1904  -2.4223 
H  -2.1990999999999996  -2.546  -3.1809000000000003 
C  -1.3968999999999996  1.3506999999999998  -3.2691 
H  -0.8569000000000004  0.8571999999999997  -3.921 
H  -0.9108  1.4093  -2.4204 
H  -1.5747999999999998  2.2515  -3.6086 
C  -2.7359  0.6116999999999999  -3.0438 
H  -3.3809  1.2969999999999997  -2.7042 
C  -3.3883  3.9116  -0.20940000000000003 
C  -4.5359  -3.5294999999999996  1.9817 
H  -4.7507  -3.2572  1.0981999999999998 
C  -5.3967  -0.1347999999999998  -1.3204 
H  -5.4586  0.2519999999999998  -2.2194 
H  -5.0882000000000005  0.5514999999999999  -0.6916 
H  -6.2793  -0.45920000000000005  -1.0433999999999999 
C  1.0458999999999996  -3.1473999999999998  2.3784 
H  1.5895000000000001  -3.881  2.1167000000000002 
C  0.7819000000000003  -1.0720999999999998  3.5273 
H  1.1379000000000001  -0.38119999999999976  4.073600000000001 
C  -3.9678  -4.3181  4.554 
H  -3.7712  -4.5766  5.4465 
C  -5.3435  -4.4615  2.6178000000000003 
H  -6.0921  -4.8293  2.1629 
C  -4.4114  -1.2919999999999998  -1.3326 
H  -4.396  -1.6444999999999999  -0.397 
C  -2.6779  0.3241000000000005  0.8496999999999999 
C  -0.1999000000000004  3.6069000000000004  -0.6007 
H  -0.5031999999999996  3.6395999999999997  -1.501 
C  -4.9242  1.7053000000000003  4.3201 
H  -5.148  2.6539  4.2135 
H  -4.3719  1.5871000000000004  5.122 
H  -5.7479  1.1847000000000003  4.4117 
C  -5.0576  -4.8536  3.9106 
H  -5.6096  -5.4875  4.352 
C  -4.5292  3.7525000000000004  -0.9741 
H  -4.7446  2.891  -1.315 
C  -0.5960999999999999  3.1489000000000003  1.7025000000000001 
H  -1.1657000000000002  2.8472999999999997  2.4005 
C  -3.296  0.11730000000000018  -4.3718 
H  -3.3486  0.8665000000000003  -5.0019 
H  -4.1909  -0.25329999999999986  -4.2306 
H  -2.7074  -0.5776999999999997  -4.735799999999999 
C  -3.9551  6.2547999999999995  0.006399999999999961 
H  -3.7561  7.1175999999999995  0.35129999999999995 
C  -1.4641000000000002  -3.3348999999999998  -1.4657 
H  -1.0538999999999996  -4.09  -1.9383 
H  -2.3345  -3.6065  -1.1072 
H  -0.8815999999999997  -3.0544  -0.731 
C  -5.368  4.822100000000001  -1.2551999999999999 
H  -6.1433  4.693899999999999  -1.7889 
C  1.5293  4.0139  0.9908999999999999 
H  2.413500000000001  4.294700000000001  1.1919 
C  -5.0704  6.0717  -0.7582 
H  -5.6431000000000004  6.8057  -0.9456 
C  0.6818999999999997  3.5934  2.0026 
H  0.9779999999999998  3.6084000000000005  2.9042999999999997 
C  -3.101  5.177099999999999  0.2861 
H  -2.3243  5.3147  0.8157000000000001 
C  -0.27390000000000025  -1.8211  -3.0164999999999997 
H  0.2554999999999996  -1.3449999999999998  -2.343 
H  -0.39890000000000025  -1.2452  -3.8001 
H  0.19599999999999973  -2.6395999999999997  -3.2841 
C  1.0785  4.022  -0.29780000000000006 
H  1.6529999999999996  4.3165  -0.9944999999999999 
C  -4.9431  -2.4402  -2.2058 
H  -5.8481  -2.6801  -1.9152 
H  -4.354  -3.2197  -2.1162 
H  -4.9661  -2.1529  -3.1428000000000003 
