25
unq_CSD-ICIQOB-01-c
N  0.33309999999999995  2.1105  0.0367999999999995 
N  0.6553  2.6563999999999997  1.2736 
N  0.6844000000000001  4.281  -0.2885 
C  0.8515000000000001  3.9294000000000002  1.0138999999999996 
C  1.1519000000000004  4.9494  2.0850999999999997 
H  1.9430000000000005  5.4553  1.8090000000000002 
C  1.4543  4.2935  3.3994999999999997 
H  0.6926000000000001  3.7833999999999994  3.6857000000000006 
H  1.6536999999999997  4.9661  4.053699999999999 
H  2.2107  3.7097999999999995  3.2982999999999993 
C  0.011200000000000099  5.9125000000000005  2.2256 
H  -0.1311  6.364199999999999  1.3903999999999996 
H  0.21810000000000018  6.556  2.907 
H  -0.7854999999999999  5.4331  2.4689999999999994 
C  0.3700999999999999  3.1232999999999995  -0.8537000000000003 
C  0.018600000000000172  3.0065999999999997  -2.3031 
H  -0.22419999999999973  2.0767999999999995  -2.4896000000000003 
C  1.2077  3.3804  -3.1797000000000004 
H  1.428  4.3046  -3.0444000000000004 
H  0.9824999999999999  3.2359  -4.101500000000001 
H  1.9627  2.8343  -2.9451 
C  -1.1717  3.8905000000000003  -2.6286000000000005 
H  -1.9053999999999998  3.6624999999999996  -2.0535 
H  -1.4296  3.7556000000000003  -3.5428 
H  -0.9337  4.8105  -2.4954 
