16
unq_CSD-CEBHUQ-01-a
F  -2.472999999999999  1.0158000000000005  0.3869999999999987 
F  -4.581499999999999  2.618400000000001  0.4176000000000002 
F  0.2796000000000003  4.649100000000001  -0.8236000000000008 
F  -1.8248999999999995  6.248100000000001  -0.8650000000000002 
F  -5.521299999999999  4.7859  -0.9107000000000003 
N  0.01389999999999958  1.8966000000000012  -0.25239999999999974 
H  0.8045000000000009  2.2487000000000013  -0.40880000000000116 
F  -5.1091  5.3573  1.0492999999999988 
F  -4.3877  6.531200000000002  -0.5456000000000003 
C  -2.3071  2.3369999999999997  0.1039999999999992 
C  -0.9966999999999988  2.7607  -0.22780000000000022 
C  -3.3740999999999994  3.1598000000000006  0.11209999999999987 
C  -2.0172999999999988  4.960000000000001  -0.5315000000000012 
C  -0.9440999999999988  4.1335  -0.5214999999999996 
C  -3.3051999999999992  4.5024  -0.20770000000000088 
C  -4.527399999999999  5.321300000000001  -0.23190000000000133 
