16
unq_CSD-FECWAP-01-a
O  -1.0419999999999998  0.7540999999999993  2.5303999999999993 
N  -0.42820000000000036  -1.1744000000000003  1.5055000000000005 
N  -0.9302999999999999  -3.3743  2.322400000000001 
N  -2.0034  -3.2864000000000004  4.5028999999999995 
N  -2.0330000000000004  -1.0664999999999996  4.849200000000001 
C  -0.44569999999999954  -2.5294000000000008  1.4396999999999993 
H  -0.060900000000000176  -2.9144000000000005  0.6610000000000005 
C  -1.4184  -2.7165999999999997  3.4018000000000006 
C  -0.9737  -0.48739999999999917  2.5872 
C  -1.4413999999999998  -1.3529999999999998  3.6245000000000003 
C  -2.3353  -2.2506000000000004  5.322500000000001 
H  -2.7515  -2.3758999999999997  6.1673 
C  -2.1944  -4.7143  4.7574 
H  -2.6067  -5.1336  3.9734000000000007 
H  -2.7786999999999997  -4.832  5.5356 
H  -1.3267999999999995  -5.1337  4.934 
