19
unq_CSD-FECYOF-01-a
O  3.1518000000000006  1.7911999999999981  -2.1049 
O  1.4973  0.5954999999999995  -3.1386000000000003 
N  1.6056  0.7354000000000003  -0.8121 
N  1.1552999999999995  1.3208000000000002  1.9455999999999998 
C  2.4213999999999993  1.5300999999999991  -0.02829999999999977 
C  4.249300000000001  3.101000000000001  -0.2613000000000003 
H  4.8928  3.510299999999999  -0.7938999999999998 
C  4.1339  3.397599999999999  1.0817999999999994 
H  4.7345999999999995  3.9940999999999978  1.4675000000000002 
C  2.2321999999999997  1.863999999999999  1.3126999999999995 
C  3.3568000000000007  2.1572999999999976  -0.7899000000000003 
C  1.9928  0.9564000000000004  -2.0982000000000003 
C  3.1221000000000005  2.814099999999998  1.888 
C  0.9608999999999996  1.6926000000000005  3.1949999999999994 
H  0.22499999999999964  1.3481000000000005  3.6468 
C  2.8794999999999993  3.135299999999999  3.2379000000000007 
H  3.4461000000000004  3.7197999999999976  3.6880999999999995 
C  1.8068  2.5828000000000007  3.883 
H  1.6378999999999992  2.7941999999999982  4.7726999999999995 
