20
unq_CSD-FECZEW-01-a
O  1.3645999999999994  2.379999999999999  1.7174999999999994 
N  6.2042  1.7653999999999996  -0.4711999999999996 
N  3.4849999999999994  1.9158999999999988  0.8317999999999994 
H  3.9458  2.5455999999999985  1.1942000000000004 
N  1.7955000000000005  0.5248999999999988  0.38339999999999996 
C  5.1922999999999995  0.8906999999999989  -0.7447999999999997 
C  2.9146  0.12549999999999883  -0.34450000000000003 
C  3.9633000000000003  0.984  -0.06789999999999985 
C  4.2226  -1.0266000000000002  -1.9721000000000002 
H  4.321999999999999  -1.7032000000000007  -2.6021 
C  2.1347000000000005  1.669599999999999  1.0548000000000002 
C  5.298  -0.13950000000000173  -1.7359999999999998 
C  7.312799999999999  1.655899999999999  -1.1856 
H  8.0032  2.2558999999999987  -1.0161999999999995 
C  7.509699999999999  0.6878999999999991  -2.1842999999999995 
H  8.309999999999999  0.6491999999999987  -2.6569000000000003 
C  3.0364000000000004  -0.9134000000000011  -1.2935999999999996 
H  2.333499999999999  -1.501900000000001  -1.4535999999999998 
C  6.5009  -0.19420000000000037  -2.4459999999999997 
H  6.616  -0.8398000000000003  -3.1055 
