23
unq_CSD-NASLEC-01-a
N  1.115  0.09299999999999997  1.5542999999999996 
O  5.6636  -2.1956999999999995  5.926 
N  2.721  0.9361000000000015  2.916599999999999 
O  4.7002999999999995  0.6344000000000012  4.6867 
H  4.1575999999999995  0.942400000000001  4.1235 
C  1.7030999999999998  -0.9763999999999999  2.1828000000000003 
C  1.7924  1.184800000000001  2.0418000000000003 
H  1.5944999999999998  2.0688000000000013  1.7559000000000005 
C  1.4523  -2.3294999999999995  2.0908999999999995 
H  0.7809999999999999  -2.675399999999999  1.5152999999999999 
C  2.7039  -0.48249999999999993  3.0275 
C  2.2374  -3.162399999999999  2.8865 
H  2.0751  -4.098399999999999  2.8664000000000005 
C  3.5219999999999994  -1.289299999999999  3.812999999999999 
C  3.2545  -2.6724999999999994  3.7148000000000003 
H  3.7745999999999995  -3.2837999999999994  4.2227 
C  4.5214  -1.342699999999999  6.1721 
H  4.6842999999999995  -0.6600999999999999  6.869999999999999 
H  3.6898  -1.8454999999999995  6.3626000000000005 
C  5.9428  -1.5396999999999998  4.670299999999999 
H  6.0089  -2.1640999999999995  3.9053000000000004 
H  6.731399999999999  -0.9418999999999986  4.7051 
C  4.5773  -0.7756999999999987  4.737 
