21
unq_CSD-PACYOK-01-c
Si  -3.0594  1.0866999999999987  -1.5351000000000004 
H  -3.6155  0.8155999999999999  -0.2969000000000004 
Si  -0.33040000000000025  1.0267999999999997  -2.8108000000000004 
H  0.9020999999999999  0.5398999999999994  -2.1985 
N  -1.3717000000000001  0.8367999999999984  -1.4966000000000002 
C  -3.9589  0.24179999999999957  -2.8938 
H  -3.7465  -0.7044000000000015  -2.8834 
H  -3.6908000000000003  0.6243999999999996  -3.7442 
H  -4.9134  0.3606999999999996  -2.7717 
C  -3.5228  2.923399999999999  -1.5984000000000003 
H  -2.9185000000000003  3.4299999999999997  -1.0315000000000003 
H  -4.4325  3.0387999999999984  -1.2839000000000003 
H  -3.4525  3.2439  -2.511 
C  -0.01470000000000038  2.752699999999999  -3.4152000000000005 
H  -0.8108000000000002  3.0939999999999994  -3.8539000000000003 
H  0.7222  2.7440999999999995  -4.0484 
H  0.21109999999999962  3.3232  -2.6641000000000004 
C  -0.5916000000000001  -0.085700000000001  -4.2698 
H  -0.7478000000000002  -0.9922000000000004  -3.9615 
H  0.19559999999999977  -0.06670000000000087  -4.8347 
H  -1.3606000000000003  0.22109999999999985  -4.7767 
