25
unq_CSD-HAFGUU-01-a
N  0.6670000000000003  0.8505000000000003  1.660099999999999 
N  -0.38670000000000027  0.9403999999999999  2.6536 
H  -0.8405  0.1908000000000003  2.7411000000000003 
C  1.9423  0.8546  2.1811999999999996 
C  2.2441  1.1549  3.5210999999999997 
H  1.5432000000000001  1.3611000000000004  4.128099999999999 
C  3.5566  1.1508000000000003  3.9617999999999993 
H  3.7396999999999996  1.3520000000000003  4.871300000000001 
C  4.5981000000000005  0.8618000000000001  3.1126999999999994 
H  5.4947  0.8841999999999999  3.4281999999999995 
C  4.33  0.5381  1.792699999999999 
H  5.0396  0.3195000000000001  1.1985999999999999 
C  3.0166  0.536  1.3411999999999997 
H  2.8412  0.31240000000000023  0.43379999999999974 
C  -1.0132000000000003  2.1658  2.9079000000000006 
C  -2.3279  2.1761  3.3678999999999997 
H  -2.8073  1.3581000000000003  3.4281999999999995 
C  -2.9485  3.3555  3.738599999999999 
H  -3.8401  3.3411999999999997  4.065499999999999 
C  -2.2706  4.5544  3.6338 
H  -2.6913  5.3683000000000005  3.8861999999999997 
C  -0.9699  4.5544  3.155499999999999 
H  -0.5009000000000001  5.3775  3.0803000000000003 
C  -0.33950000000000014  3.3760000000000003  2.7852000000000006 
H  0.5490999999999997  3.3954000000000004  2.4494999999999996 
