31
unq_CSD-BEFYOE-01-a
Si  3.2088  0.37509999999999977  0.7613000000000003 
N  1.8921  0.3973999999999993  -0.4157000000000002 
C  2.1658  0.8758999999999997  -1.7405999999999997 
C  2.4948  2.2082999999999995  -1.9414999999999996 
H  2.51  2.799200000000001  -1.1974 
C  2.1246  0.011699999999999378  -2.8404999999999996 
H  1.9058  -0.9039999999999999  -2.7138 
C  2.741  1.8260000000000005  -4.291 
H  2.9337  2.152100000000001  -5.161899999999999 
C  3.1768  -1.2436000000000007  1.665 
H  2.3262  -1.333499999999999  2.144000000000001 
H  3.9172  -1.2745999999999995  2.306300000000001 
H  3.2693  -1.9781999999999993  1.0232999999999999 
C  2.4031  0.48690000000000033  -4.1232 
C  2.8028  2.6994000000000007  -3.2049999999999996 
C  3.0486  1.7812000000000001  1.9813999999999998 
H  3.1105  2.6351999999999993  1.5049000000000001 
H  3.7706  1.7232000000000003  2.6422 
H  2.1836  1.7218999999999998  2.4364 
C  3.2108  4.1426  -3.3878 
H  2.4731  4.727399999999999  -3.1129999999999995 
H  3.4224  4.305199999999999  -4.330299999999999 
H  3.9991  4.3315  -2.8377 
C  4.819  0.5007999999999999  -0.16929999999999978 
H  4.8002  -0.10599999999999987  -0.9376999999999995 
H  5.5588  0.2550000000000008  0.42440000000000033 
H  4.9436  1.4215  -0.48219999999999974 
C  2.3503  -0.43789999999999907  -5.3183 
H  2.4203  -1.367799999999999  -5.015499999999999 
H  3.0954  -0.2350999999999992  -5.9223 
H  1.5022  -0.3122000000000007  -5.7926 
