40
unq_CSD-WAVHEJ-01-d
N  -1.1492  1.2353  1.3972999999999978 
N  -1.2942999999999998  3.1455  2.777199999999997 
N  -3.2071  2.333  1.6268999999999991 
C  -1.8412  2.1936  1.9085999999999999 
C  -3.9119  3.535  1.8778999999999968 
C  -5.1457  3.7969999999999997  1.3180999999999976 
H  -5.5372  3.184  0.7078999999999986 
C  -5.8261  4.9966  1.6716999999999977 
H  -6.6721  5.1769  1.2805 
C  -5.303599999999999  5.8861  2.541599999999999 
H  -5.7837  6.6770000000000005  2.7574999999999967 
C  -4.0466999999999995  5.6409  3.132999999999999 
C  -3.3291  4.475  2.7708999999999975 
C  -3.4677  6.5232  4.077999999999999 
H  -3.9171  7.3237  4.318899999999999 
C  -2.2763999999999998  6.222700000000001  4.631799999999998 
H  -1.9169  6.8020000000000005  5.291999999999998 
C  -1.5562  5.0856  4.265699999999999 
H  -0.7254999999999998  4.9005  4.688099999999999 
C  -2.0362999999999998  4.2201  3.2957 
C  0.12950000000000017  2.9196  3.1986999999999988 
H  0.4761000000000002  2.1936  2.6072999999999986 
C  1.0460999999999996  4.1312  2.9608999999999988 
H  0.7239  4.636  2.184899999999999 
H  1.9602  3.8211000000000004  2.7918999999999983 
H  1.0383999999999998  4.7081  3.7524999999999977 
C  0.19750000000000023  2.3691000000000004  4.6099 
H  -0.22999999999999998  3.0012999999999996  5.226299999999998 
H  1.1347  2.2439999999999998  4.8664999999999985 
H  -0.26980000000000004  1.5084  4.647499999999997 
C  -3.8863  1.1381999999999999  1.033299999999997 
H  -3.2225  0.3954  1.117799999999999 
C  -4.1674  1.2536  -0.46550000000000225 
H  -4.7092  2.0517000000000003  -0.6345000000000027 
H  -4.6527  0.4579  -0.765900000000002 
H  -3.3188  1.3233000000000001  -0.9505000000000017 
C  -5.0853  0.6983000000000001  1.8750999999999998 
H  -4.8183  0.6358000000000001  2.816899999999997 
H  -5.3986  -0.17680000000000007  1.565299999999997 
H  -5.8068  1.3546  1.7842999999999982 
