18
unq_CSD-WAYHOW-01-a
F  4.1381000000000006  -1.6502999999999997  5.4059 
N  1.3214  0.5903000000000009  1.2796000000000003 
C  1.5655  1.9094999999999995  1.6029999999999998 
H  1.2143  2.6408000000000005  1.1075999999999997 
C  2.3626  2.0603999999999996  2.7043 
C  2.6476  0.7484999999999999  3.1418 
C  3.3978  0.2347999999999999  4.2261999999999995 
H  3.8597  0.8008000000000006  4.833799999999999 
C  3.4151  -1.1148000000000007  4.3402 
C  2.7833  -2.0145  3.5213 
H  2.8584  -2.9490999999999996  3.6727999999999996 
C  2.0322  -1.5197000000000003  2.4668 
H  1.5581  -2.1103000000000005  1.8928000000000003 
C  1.9828  -0.15559999999999974  2.2649 
C  2.8243  3.340300000000001  3.3231 
H  2.5576  4.0920000000000005  2.7529000000000003 
H  3.8001  3.3271999999999995  3.4109999999999996 
H  2.4177  3.439  4.2075000000000005 
