14
unq_CSD-WIZNOJ-01-a
S  0.24590000000000023  3.2883000000000004  -4.6655 
N  0.8796000000000004  0.5357999999999992  -1.8331 
O  1.0423000000000004  3.4241  -5.8618 
O  0.36650000000000027  4.445999999999999  -3.8104 
O  -1.1269999999999998  2.9219999999999997  -4.9055 
C  1.9701  -0.09630000000000027  -2.2918 
H  2.3203  -0.7972000000000001  -1.7910999999999997 
C  2.5919000000000003  0.242  -3.4655 
H  3.3407000000000004  -0.2298  -3.7502999999999997 
C  2.0979000000000005  1.2898999999999994  -4.2231 
H  2.5089  1.5460999999999991  -5.0172 
C  0.9727000000000001  1.9418999999999995  -3.7580999999999998 
C  0.391  1.5413999999999994  -2.5739 
H  -0.3698999999999999  1.9865000000000004  -2.2778 
