26
unq_CSD-WUCXAT-01-c
N  -0.2535999999999996  -0.4203000000000001  -2.0275 
N  -0.5772000000000004  -2.4464000000000006  -3.3306 
C  -0.47860000000000014  -1.3803  -2.6477 
C  -1.7155999999999998  -2.8642000000000003  -4.0981000000000005 
C  -2.2652  -2.0617  -5.0942 
C  -3.2819000000000003  -2.5790000000000006  -5.8711 
H  -3.6552  -2.0534  -6.543 
C  -3.746  -3.8457000000000003  -5.6737 
H  -4.4314  -4.1724  -6.211 
C  -3.2355  -4.62  -4.7246 
H  -3.5697  -5.4772  -4.593 
C  -2.1931  -4.1458  -3.9211 
C  -1.8845999999999998  -0.548  -5.3135 
H  -2.6171  -0.07710000000000061  -5.7411 
H  -1.7022  -0.12190000000000012  -4.4615 
C  -0.8181000000000003  -0.5148000000000001  -6.0763 
H  -0.5675999999999997  0.3971  -6.2392 
H  -1.008  -0.9492000000000003  -6.9111 
H  -0.09619999999999962  -0.9708000000000006  -5.6362 
C  -1.5124  -5.094200000000001  -2.9234 
H  -1.6534  -6.0044  -3.2272 
H  -0.5579000000000001  -4.9251000000000005  -2.9469 
C  -1.9451  -5.0047  -1.5716999999999999 
H  -1.4449999999999998  -5.6231  -1.0345 
H  -2.8794  -5.218500000000001  -1.52 
H  -1.8035999999999999  -4.111000000000001  -1.2491 
