12
unq_CSD-XECPUR-01-d
N  -0.7106999999999997  1.9944999999999995  0.03200000000000003 
C  -0.0490999999999997  3.0226999999999995  -0.5358000000000005 
H  0.762  2.8244  -0.9682000000000004 
N  -0.44479999999999986  4.2952  -0.5385000000000004 
C  -1.5810999999999997  4.5726  0.11529999999999951 
H  -1.8737999999999997  5.4647  0.1543000000000001 
C  -2.3404  3.5947000000000005  0.7333999999999996 
C  -1.8655999999999997  2.2978999999999994  0.641 
H  -2.3728999999999996  1.6024000000000003  1.0191 
C  -3.6241999999999996  3.9287  1.4752 
O  -4.394299999999999  3.011  1.7683999999999997 
O  -3.7965  5.1385  1.7464999999999993 
