30
unq_CSD-XOVFAR-01-a
C  -0.9935999999999998  2.0669000000000004  -1.6763999999999992 
C  -1.0297  3.5489999999999995  -1.9722 
C  -0.11720000000000041  4.1408000000000005  -1.0250000000000004 
C  0.37010000000000076  3.0714000000000006  -0.2540999999999993 
C  1.2652999999999999  3.2843  0.75 
H  1.5968  2.5726999999999993  1.2477999999999998 
C  1.6760000000000002  4.5922  1.0174000000000003 
H  2.2848000000000006  4.758900000000001  1.7001000000000008 
C  1.1738999999999997  5.651400000000001  0.25650000000000084 
H  1.4473000000000003  6.519599999999999  0.44560000000000066 
C  0.2917000000000005  5.4327999999999985  -0.7561999999999998 
H  -0.03200000000000003  6.144399999999999  -1.2611000000000008 
C  -3.356  3.8720999999999997  -4.5508 
C  -4.108099999999999  2.8321000000000005  -5.3189 
C  -3.7992  1.4727999999999994  -5.326 
H  -3.0653999999999995  1.1706000000000003  -4.841 
C  -4.5488  0.5785  -6.0286 
H  -4.3351  -0.32670000000000066  -5.994400000000001 
C  -5.5961  0.9838000000000005  -6.7724 
H  -6.0778  0.37049999999999983  -7.2816 
C  -5.943899999999999  2.307499999999999  -6.7738 
H  -6.6899  2.5881000000000007  -7.2517 
C  -5.1922  3.234400000000001  -6.0641 
H  -5.422599999999999  4.135300000000001  -6.0926 
N  -0.15840000000000032  1.8340999999999994  -0.6708999999999996 
N  -1.758  4.160500000000001  -2.8312999999999997 
N  -2.5618  3.372300000000001  -3.5865 
O  -1.6564999999999994  1.1989  -2.2809 
O  -3.4708999999999994  5.0555  -4.7812 
H  -2.5284999999999993  2.4810999999999996  -3.3518999999999997 
