23
unq_CSD-XOZWOY-01-c
N  1.4223999999999997  -0.5507  1.4880999999999993 
N  2.3239  -3.3066000000000004  4.7269000000000005 
N  4.447699999999999  1.7139999999999995  2.3254 
N  4.9552  -0.8254999999999999  4.5893000000000015 
C  2.1226000000000003  -0.8432000000000004  2.3415 
C  2.956999999999999  -1.2326000000000001  3.3790000000000013 
C  2.623199999999999  -2.3829000000000002  4.1205 
C  4.1114  -0.4626999999999999  3.7135 
C  4.2834  0.7760999999999996  2.9358000000000004 
C  6.027899999999999  0.023899999999999366  4.9344 
C  5.8283000000000005  1.2362000000000002  5.565000000000001 
H  4.964700000000001  1.5476  5.710100000000001 
C  6.9155999999999995  1.9901  5.9841000000000015 
H  6.7677  2.7953  6.427299999999999 
C  8.2051  1.5759999999999996  5.7623999999999995 
C  8.3978  0.3689999999999998  5.123799999999999 
H  9.264  0.07169999999999987  4.9605999999999995 
C  7.3260000000000005  -0.4096000000000002  4.7208000000000006 
H  7.478199999999999  -1.2272000000000003  4.305800000000001 
C  9.381  2.4024  6.2057 
H  9.907399999999999  1.8998  6.8322 
H  9.067  3.2058999999999997  6.624700000000001 
H  9.9195  2.6272  5.444099999999999 
