30
unq_CSD-MEBHEK-01-b
N  1.0722999999999998  0.1753  -1.5196 
C  2.1232  1.2850000000000001  -4.814 
H  2.9442  1.3643  -5.2855 
C  -0.3487999999999998  1.0861999999999998  -3.391 
C  0.8754  0.6974  -2.7895000000000003 
C  2.0951  0.7863999999999995  -3.505 
C  2.4215000000000004  -0.10660000000000025  -1.4367999999999999 
C  3.1111  0.27499999999999947  -2.6224000000000003 
C  -1.6348999999999998  1.0329999999999995  -2.5934000000000004 
H  -1.5973  0.2123999999999997  -2.023 
C  -0.2843  1.5484  -4.6978 
H  -1.0895  1.8006000000000002  -5.1343000000000005 
C  3.1194  -0.7151000000000005  -0.38090000000000046 
H  2.6655  -0.9821  0.4097999999999997 
C  0.9353000000000002  1.6578  -5.4027 
H  0.9359000000000002  1.9919000000000002  -6.2921000000000005 
C  4.492100000000001  0.08720000000000017  -2.7222000000000004 
H  4.9603  0.36540000000000017  -3.5006000000000004 
C  5.168900000000001  -0.5094000000000003  -1.6729000000000003 
H  6.1074  -0.6440000000000001  -1.7349 
C  4.481999999999999  -0.9184000000000001  -0.5155000000000003 
H  4.962  -1.3417000000000003  0.18659999999999943 
C  -1.7339999999999998  2.2378  -1.6523000000000003 
H  -0.9312  2.2817  -1.0921000000000003 
H  -2.5255  2.1427999999999994  -1.0822000000000003 
H  -1.809  3.059799999999999  -2.1808 
C  -2.9032  0.9356999999999998  -3.4485 
H  -3.0061  1.7560000000000002  -3.9748 
H  -3.6825  0.8220999999999998  -2.8652 
H  -2.8321  0.16699999999999982  -4.0521 
