43
unq_CSD-PENJOL-01-a
N  -0.12639999999999985  -1.8081000000000005  0.5493000000000001 
C  -1.0876  -2.6333  -0.11059999999999981 
C  -2.4664  -2.5265000000000004  0.18210000000000015 
C  -3.3842  -3.2388000000000003  -0.5922000000000001 
H  -4.311  -3.1631000000000005  -0.39949999999999974 
C  -2.9777  -4.0472  -1.6265 
H  -3.6197999999999997  -4.5171  -2.1458 
C  -1.6347  -4.1726  -1.9081 
H  -1.3591  -4.7369  -2.6211 
C  -0.6720999999999999  -3.4896000000000003  -1.1688999999999998 
C  -3.0096  -1.6801000000000004  1.3239000000000005 
H  -2.2466  -1.1657000000000006  1.7166000000000001 
C  -4.0812  -0.6746000000000003  0.8835999999999999 
H  -3.722  -0.10410000000000075  0.17300000000000004 
H  -4.3421  -0.11930000000000085  1.6481999999999997 
H  -4.8652999999999995  -1.1586000000000003  0.5495000000000005 
C  -3.5898  -2.5752000000000006  2.4228 
H  -4.368  -3.0575  2.073 
H  -3.8627000000000002  -2.0224  3.1841000000000004 
H  -2.9097999999999997  -3.2186000000000003  2.7125999999999997 
C  0.7859000000000003  -3.6348000000000003  -1.5480999999999998 
H  1.331  -3.2899000000000003  -0.7839 
C  1.1352000000000002  -2.7945  -2.7793 
H  2.0828  -2.9161  -2.9988 
H  0.9630000000000001  -1.8490000000000002  -2.5885999999999996 
H  0.5849000000000002  -3.0812000000000004  -3.5370999999999997 
C  1.1923  -5.099500000000001  -1.7820999999999998 
H  0.7684000000000002  -5.429200000000001  -2.6017 
H  0.9022999999999999  -5.6447  -1.0215999999999998 
H  2.1669000000000005  -5.1573  -1.8727999999999998 
C  0.6293000000000002  -2.3057000000000003  1.7337000000000002 
C  0.5556000000000001  -3.8249000000000004  1.8817999999999997 
H  -0.3813  -4.0994  1.9674999999999998 
H  1.0509  -4.0997  2.6815 
H  0.9494000000000002  -4.249700000000001  1.0913999999999997 
C  2.0837  -1.8636000000000004  1.5865000000000005 
H  2.4696000000000002  -2.2731000000000003  0.7848000000000002 
H  2.5919000000000003  -2.1469000000000005  2.3754000000000004 
H  2.1214999999999997  -0.8879000000000006  1.5066000000000002 
C  0.06579999999999986  -1.7006000000000006  3.0262 
H  0.010499999999999954  -0.7265000000000006  2.9332 
H  0.6558999999999999  -1.9242000000000004  3.7757 
H  -0.8283  -2.0642000000000005  3.1938 
