20
unq_CSD-XEJSIS-01-b
C  2.9071999999999996  -3.1396999999999995  0.13889999999999958 
C  1.4121  -2.1836  1.5257000000000005 
C  2.2996  -2.0198  -0.48389999999999844 
N  1.3830000000000002  -1.4337999999999997  0.3550000000000004 
C  2.3297  -3.25  1.4443999999999981 
C  0.7085999999999999  -1.9803999999999995  2.722100000000001 
H  0.0849000000000002  -1.2706999999999997  2.8223999999999982 
C  2.6950000000000003  -1.6117999999999997  -1.7573000000000008 
H  2.2992999999999997  -0.8517000000000001  -2.1689000000000007 
C  0.9754000000000003  -2.8750999999999998  3.7558000000000007 
H  0.5073000000000001  -2.7378  4.57 
N  4.2728  -3.3995999999999995  -1.9177999999999997 
C  3.6857999999999995  -2.3459000000000003  -2.416500000000001 
H  3.9493  -2.0584  -3.2840000000000007 
C  3.8746  -3.8486  -0.5823999999999998 
H  4.2734  -4.6239  -0.20599999999999952 
C  1.8169000000000002  -3.8973999999999998  3.7150999999999996 
H  1.9214  -4.4803  4.457699999999999 
C  2.5343999999999998  -4.0817  2.5508999999999986 
H  3.1742  -4.7826  2.5006999999999984 
