11
unq_CSD-ISAPUQ-01-a
N  0.30569999999999986  -1.6381000000000014  -1.3068000000000008 
N  0.10879999999999956  -3.8111000000000015  -1.9456000000000007 
C  -0.19979999999999976  -2.872700000000002  -1.056700000000001 
C  1.0083000000000002  -1.8020000000000014  -2.4795 
C  0.875  -3.116900000000001  -2.8506 
H  1.2621000000000002  -3.497200000000001  -3.6303 
C  1.7819000000000003  -0.7119  -3.107800000000001 
H  -0.7927999999999997  -3.0383000000000013  -0.3071000000000019 
H  1.1936  0.1153999999999975  -3.3153000000000006 
H  2.6106999999999996  -0.421400000000002  -2.5731 
H  2.0744  -1.0491000000000028  -4.1134 
