23
unq_CSD-IWEPOQ-01-a
O  -7.039200000000001  0.3461000000000003  -5.949999999999999 
O  -8.998600000000001  0.1926000000000001  -4.9123 
O  -9.228100000000001  0.22760000000000025  -0.11969999999999992 
H  -9.7256  0.09920000000000018  0.6434999999999995 
O  -7.482400000000001  -0.18069999999999986  1.1928999999999998 
N  -3.5599000000000007  0.17470000000000008  -2.1875 
N  -1.5324000000000009  0.1654  -1.3775999999999993 
N  -1.427900000000001  0.1615000000000002  -2.7745999999999995 
C  -5.0151  0.15620000000000012  -2.2597999999999994 
C  -5.6356  0.20179999999999998  -3.5033999999999996 
H  -5.113500000000001  0.2389000000000001  -4.2965 
C  -7.030600000000001  0.1926000000000001  -3.5766999999999998 
C  -7.778300000000001  0.14360000000000017  -2.4003999999999994 
H  -8.7268  0.1442000000000001  -2.4422999999999995 
C  -7.139100000000001  0.09330000000000016  -1.1688 
C  -5.750300000000001  0.0900000000000003  -1.0895000000000001 
H  -5.314400000000001  0.04300000000000015  -0.24690000000000012 
C  -2.793800000000001  0.17200000000000015  -1.0714999999999995 
H  -3.133300000000001  0.17470000000000008  -0.18409999999999993 
C  -2.658800000000001  0.1694  -3.2189999999999994 
H  -2.8957000000000006  0.17140000000000022  -4.1394 
C  -7.741300000000001  0.2442000000000002  -4.9101 
C  -7.9487000000000005  0.02110000000000012  0.10470000000000024 
