35
unq_CSD-IXOBUV-01-c
N  -2.296999999999999  -1.7443999999999997  -1.2655000000000012 
N  -1.0374999999999996  -1.2893999999999997  -1.4184 
N  -0.5259  -1.6708999999999996  -2.5678 
N  -1.436399999999999  -2.3956999999999997  -3.2040000000000006 
C  -2.4999000000000002  -2.4205  -2.3931000000000004 
C  -3.756499999999999  -3.1109999999999998  -2.7167000000000012 
C  -3.934099999999999  -3.6444  -3.9879000000000016 
H  -3.2783999999999995  -3.5152  -4.633600000000001 
C  -5.0677  -4.3632  -4.303300000000001 
H  -5.159599999999999  -4.7229  -5.156200000000001 
C  -6.065999999999999  -4.5557  -3.3760000000000012 
C  -5.9216999999999995  -3.9685  -2.1373000000000015 
H  -6.6019  -4.0523  -1.5091 
C  -4.7818000000000005  -3.2565  -1.815100000000001 
H  -4.7074  -2.8703  -0.9730000000000008 
C  -7.2314  -5.3979  -3.7185000000000006 
C  -7.401599999999999  -6.2036999999999995  -4.825900000000001 
H  -6.8152  -6.3346  -5.535200000000001 
N  -8.3286  -5.4873  -2.9428 
N  -9.186  -6.3324  -3.496500000000001 
N  -8.6124  -6.7532  -4.637700000000001 
C  -9.2603  -7.8102  -5.422900000000001 
H  -9.0628  -7.6782  -6.363700000000001 
H  -10.221699999999998  -7.7512  -5.307800000000001 
C  -8.7909  -9.181000000000001  -5.001800000000001 
C  -7.6209  -9.7074  -5.505400000000001 
H  -7.1288  -9.2243  -6.129500000000001 
C  -7.1762999999999995  -10.9408  -5.0939000000000005 
H  -6.393699999999999  -11.2974  -5.4472000000000005 
C  -7.8861  -11.6378  -4.167900000000001 
H  -7.5756  -12.4659  -3.8796000000000017 
C  -9.0406  -11.1424  -3.6576000000000004 
H  -9.5206  -11.6318  -3.0294000000000008 
C  -9.5034  -9.9107  -4.075900000000001 
H  -10.2988  -9.5735  -3.732000000000001 
