19
unq_CSD-JIHROK-01-a
N  -0.07340000000000124  -0.3390000000000004  2.2283 
O  -1.2954000000000008  -6.2979  7.6385000000000005 
O  0.25459999999999994  -4.8055  7.1579999999999995 
O  -1.5203000000000007  -3.1933000000000002  5.800800000000001 
O  -0.8631000000000011  -4.0877  3.8548 
C  -0.9036000000000008  -5.238700000000001  7.0974 
C  -1.9626000000000001  -4.4670000000000005  6.3233 
H  -2.2666000000000004  -5.016900000000001  5.5832999999999995 
H  -2.7230000000000008  -4.3156  6.906499999999999 
C  -0.9724000000000004  -3.1057  4.5844000000000005 
C  -0.24910000000000032  -0.6999000000000004  4.9855 
H  -0.31020000000000003  -0.8117000000000001  5.9068000000000005 
C  -0.4380000000000006  -1.5156  2.7588999999999997 
H  -0.6280000000000001  -2.2179  2.1806 
C  0.14239999999999853  0.5102000000000002  4.449299999999999 
H  0.3523999999999994  1.226  5.005799999999999 
C  0.21859999999999857  0.6472999999999995  3.0808 
H  0.48579999999999934  1.4670999999999994  2.7321999999999997 
C  -0.548  -1.7441  4.1282 
