23
unq_CSD-SOKTUJ-01-c
F  -1.9261000000000001  -1.761800000000001  -2.9770000000000003 
F  -4.5781  -1.8450000000000006  -3.3061999999999996 
F  -6.0747  0.3894000000000002  -3.1064999999999996 
F  -4.8329  2.7887000000000004  -2.6334 
F  -2.192  2.889199999999999  -2.2827 
N  -0.5806  0.587299999999999  -2.2988999999999997 
C  -1.9443000000000001  0.5589999999999993  -2.5561 
C  -2.6272  -0.6391000000000009  -2.8438999999999997 
C  -3.9887  -0.6956000000000007  -3.0292000000000003 
C  -4.7526  0.4286999999999992  -2.95 
C  -4.1269  1.636099999999999  -2.7089999999999996 
C  -2.7492  1.7051999999999996  -2.5164999999999997 
C  0.2117  1.1666999999999987  -3.2846 
C  1.6241000000000003  1.2199999999999989  -3.1083 
H  2.003  0.876199999999999  -2.3312 
C  2.4459  1.767999999999999  -4.0653 
H  3.3640999999999996  1.8103999999999996  -3.9142 
C  1.9222000000000001  2.262699999999999  -5.256 
H  2.4768999999999997  2.6221999999999994  -5.912599999999999 
C  0.5609999999999999  2.1998999999999995  -5.4305 
H  0.19669999999999987  2.5265000000000004  -6.2202 
C  -0.2791000000000001  1.6691000000000003  -4.4718 
H  -1.1963000000000001  1.6486999999999998  -4.6301 
