45
unq_CSD-FARZUV-01-d
O  2.6350000000000007  5.301200000000001  3.908699999999998 
N  2.0099  -0.29579999999999984  -0.13750000000000107 
O  4.997800000000001  6.2715000000000005  4.327799999999998 
O  1.4604  -4.2594  -2.7266000000000012 
N  2.1972000000000005  1.5096999999999996  1.068299999999999 
O  5.5368  -4.4821  -3.221300000000001 
N  2.822400000000001  0.5583999999999998  0.4413999999999998 
C  3.0772000000000004  2.4331000000000005  1.6471 
C  3.6575999999999995  -3.5023  -2.290000000000001 
C  4.470899999999999  -2.5507  -1.6851000000000003 
H  5.3922  -2.6326  -1.780800000000001 
C  3.9821999999999997  -1.4901999999999997  -0.9493000000000009 
H  4.562400000000001  -0.8891999999999998  -0.5418000000000003 
C  2.5973999999999995  -1.3373  -0.8287000000000013 
C  2.4853000000000005  3.3783000000000003  2.468099999999998 
H  1.5645000000000007  3.3541  2.5907999999999998 
C  1.7636000000000003  -2.2667  -1.4253 
H  0.8421000000000003  -2.1738  -1.338000000000001 
C  2.2723000000000004  -3.3347  -2.1487 
C  3.2250000000000005  4.3618  3.112499999999999 
O  6.7399  5.4011000000000005  3.2934 
C  4.2498  -4.6195  -3.0488 
C  5.556  5.395499999999999  3.5221 
C  4.614300000000001  4.4091  2.931700000000001 
O  3.6969000000000003  -5.5691  -3.4687 
C  5.1817  3.4638999999999998  2.079399999999998 
H  6.0996  3.4920999999999998  1.9318000000000008 
C  4.4507  2.4955000000000007  1.4495999999999984 
H  4.8701  1.8818000000000001  0.8903999999999979 
C  1.2186000000000003  5.262199999999999  4.0333999999999985 
H  0.9300000000000006  5.962699999999999  4.621699999999999 
H  0.9534000000000002  4.412299999999999  4.395100000000001 
H  0.8174999999999999  5.3824  3.170799999999998 
C  5.8821  7.272799999999999  4.9002 
H  5.3778999999999995  7.8569  5.4719 
H  6.2847  7.7853  4.195600000000001 
H  6.568600000000001  6.839099999999999  5.4137 
C  6.188400000000001  -5.4995  -4.027800000000001 
H  7.124900000000001  -5.3013  -4.0985 
H  5.7963  -5.5132  -4.9030000000000005 
H  6.0737  -6.3579  -3.6121 
C  0.051300000000000345  -4.127800000000001  -2.5374 
H  -0.4017999999999997  -4.8356  -3.0010000000000012 
H  -0.2397999999999998  -3.2806  -2.8825000000000003 
H  -0.15119999999999933  -4.1766000000000005  -1.5998999999999999 
