28
unq_CSD-FIPFOC-01-a
Si  1.0949  3.216899999999999  2.1415000000000006 
Si  -1.4908000000000001  1.8674  3.353300000000001 
N  -0.021899999999999586  1.0327000000000002  1.2768000000000015 
N  -0.01980000000000004  1.856399999999999  2.3833 
C  -2.6442  3.1547  2.7302000000000017 
H  -2.1841  3.9954  2.6698000000000004 
H  -3.3866  3.2395999999999994  3.3333000000000013 
H  -2.966  2.903599999999999  1.8610000000000007 
C  2.7922000000000002  2.5366  1.831100000000001 
H  3.1548000000000007  2.1953999999999994  2.6530000000000005 
H  3.3602  3.2329999999999988  1.4959000000000007 
H  2.7396000000000003  1.8269000000000002  1.1869000000000014 
C  0.5186000000000002  4.292499999999999  0.7346000000000004 
H  0.31149999999999967  3.741999999999999  -0.02499999999999858 
H  1.2134  4.911999999999999  0.4997000000000007 
H  -0.26560000000000006  4.7766  1.0017000000000014 
C  1.1910999999999996  4.254099999999999  3.6751000000000005 
H  0.30600000000000005  4.5054  3.947400000000002 
H  1.7079000000000004  5.0426  3.4963000000000015 
H  1.6104000000000003  3.7489999999999988  4.3765 
C  -2.2337  0.2024999999999988  3.316300000000002 
H  -2.7984  0.12129999999999974  2.5440000000000005 
H  -2.7573  0.06839999999999868  4.110300000000002 
H  -1.5385999999999997  -0.45730000000000004  3.276 
C  -1.1384999999999996  2.2197999999999993  5.130400000000002 
H  -0.5486000000000004  1.5485999999999986  5.479900000000001 
H  -1.9607  2.213099999999999  5.627600000000001 
H  -0.7251000000000003  3.082799999999999  5.2102 
