25
unq_CSD-FIPVAE-01-a
Si  -3.3276000000000003  -0.7065000000000001  1.735899999999999 
F  -1.1822  -3.5675  1.6384999999999987 
F  -1.2311  -5.7945  0.18239999999999945 
F  -3.5116999999999994  -3.4936  -3.2607 
F  -3.4383999999999997  -1.2641999999999998  -1.811 
N  -2.0486000000000004  -1.0838  0.5932999999999993 
C  -2.2119  -2.2959000000000005  -0.07660000000000089 
C  -1.6746999999999999  -3.5095  0.38649999999999984 
C  -1.7321000000000002  -4.6517  -0.3526000000000007 
C  -2.3006  -4.6974  -1.600900000000001 
H  -2.2971000000000004  -5.492100000000001  -2.1224000000000007 
C  -2.8802000000000003  -3.5228  -2.0660000000000007 
C  -2.8334  -2.3657000000000004  -1.3435000000000006 
C  -2.676  -0.36270000000000024  3.4566999999999997 
H  -2.2369000000000003  -1.1665  3.8057 
H  -3.4189999999999996  -0.11430000000000007  4.043699999999999 
H  -2.0282999999999998  0.3723000000000001  3.4189999999999987 
C  -4.3987  0.7544999999999993  1.2578999999999994 
H  -3.931  1.5875999999999992  1.4757999999999996 
H  -5.2440999999999995  0.7153999999999998  1.7516999999999996 
H  -4.5809999999999995  0.7246999999999995  0.29519999999999946 
C  -4.5019  -2.1699  1.8444000000000003 
H  -4.9714  -2.2758000000000003  0.9898999999999987 
H  -5.1549  -2.0128000000000004  2.5577999999999985 
H  -3.9929999999999994  -2.9838000000000005  2.039999999999999 
