14
unq_CSD-QUNSOI-01-a
N  4.3368  1.0058999999999998  1.763 
N  3.2963000000000005  -0.5860000000000001  0.3111000000000006 
N  2.1473000000000013  0.3869999999999998  3.565500000000001 
N  0.8525000000000009  0.2983  3.941 
N  0.0907  0.0956999999999999  2.891000000000001 
N  0.8726000000000003  0.0351999999999999  1.7949000000000002 
C  4.3786000000000005  -0.5530000000000002  -0.4750999999999994 
H  4.4045000000000005  -1.0941  -1.2317999999999998 
C  5.4556000000000004  0.25749999999999984  -0.1982999999999997 
H  6.191500000000001  0.2943999999999998  -0.7643999999999993 
C  5.3985  1.0129  0.9521000000000006 
H  6.1265  1.5477  1.1731000000000007 
C  3.3246  0.20799999999999996  1.3879000000000001 
C  2.1309000000000005  0.21350000000000002  2.2401 
