13
unq_CSD-RALXAD-01-c
N  0.9753000000000003  0.0  1.7529 
H  0.5818000000000003  0.0  2.3240000000000003 
C  2.3091000000000004  0.0  1.9354 
C  2.8645  0.0  3.2345 
H  2.2982  0.0  3.9713 
C  4.229100000000001  0.0  3.4326000000000003 
H  4.5669  0.0  4.299099999999999 
C  5.0899  0.0  2.3761 
C  4.5859000000000005  0.0  1.0836999999999999 
H  5.1668  0.0  0.35840000000000005 
C  3.2278  0.0  0.8721000000000001 
H  2.9076  0.0  -0.0011999999999998678 
I  7.1845  0.0  2.6869 
