17
unq_CSD-RETXOD-01-a
S  -1.1986999999999988  1.8128000000000002  -4.0229 
S  -0.8374999999999986  1.9620000000000002  -7.1829 
S  -2.318299999999999  1.9821  -1.2607 
O  1.814  -0.23219999999999996  -2.8396999999999997 
N  -0.0804999999999989  0.7305000000000001  -1.9663 
C  -1.1539000000000001  1.4646  -2.318 
C  0.8029000000000011  0.4417000000000002  -2.9976000000000003 
C  0.31320000000000014  0.9872000000000001  -4.2707999999999995 
C  0.9570000000000007  0.7666  -5.436 
C  0.625  1.1878000000000002  -6.7651 
C  -0.4499999999999993  1.9901  -8.8158 
C  0.7484999999999999  1.4606  -9.0916 
C  1.5425000000000004  0.8749000000000002  -7.9644 
H  1.7324000000000002  0.2644000000000002  -5.3701 
H  -1.0140999999999991  2.3367  -9.4694 
H  1.0848000000000013  1.4582000000000002  -9.963 
H  2.3626000000000005  0.43890000000000007  -7.9823 
