25
unq_CSD-NEDKUC-01-b
N  -0.8169  -1.4484  1.1454999999999997 
O  -2.3954999999999997  -3.6192  1.2734999999999999 
O  -1.1584999999999999  -4.2979  6.4887999999999995 
C  -0.5696999999999999  -1.7181  2.4307 
C  0.3562000000000003  -0.9049  3.1627 
C  0.6123000000000003  -1.1098999999999999  4.489 
C  -0.010699999999999932  -2.1522  5.1909 
C  -3.052  -6.036899999999999  5.3395 
C  -3.9612  -6.864800000000001  4.7198 
C  -4.2543  -6.687200000000001  3.3745 
C  -3.6517  -5.6636  2.6441 
C  -2.1065  -3.7100999999999997  2.4829 
C  -1.4686  -4.1084  5.315799999999999 
C  -1.1798  -2.8106  3.1468999999999996 
C  -0.8765999999999998  -2.9909999999999997  4.5285 
C  -2.437  -5.0019  4.6312999999999995 
C  -2.737  -4.8141  3.2733 
H  -1.5041  -1.9373  0.8577999999999997 
H  0.7732000000000001  -0.24619999999999997  2.66 
H  1.1559  -0.5592999999999999  4.9443 
H  0.15270000000000028  -2.2509  6.13 
H  -2.7676  -6.1067  6.2707 
H  -4.3729  -7.6762  5.2368 
H  -4.837199999999999  -7.1776  2.9175999999999997 
H  -3.8272  -5.5395  1.6845999999999997 
