42
unq_CSD-NOHLEB01-01-a
N  1.125  -0.2889999999999997  -1.4458000000000002 
C  0.4044  -0.3589000000000002  -2.6995000000000005 
C  -0.07519999999999999  -1.5853000000000002  -3.1525999999999996 
C  -0.8469  -1.6631999999999998  -4.3203 
C  -1.3511  -3.0046999999999997  -4.802899999999999 
C  -1.1302  -0.48930000000000007  -5.011699999999999 
C  -0.6605000000000001  0.7384000000000004  -4.586 
C  -0.9550000000000001  2.0023999999999997  -5.365600000000001 
C  0.11060000000000003  0.8180999999999994  -3.4093999999999998 
C  2.603  -0.3155000000000001  -1.5021000000000004 
C  3.1267  -0.3449000000000009  -0.05109999999999992 
C  4.6619  -0.36790000000000056  -0.027499999999999858 
C  5.2010000000000005  0.8940999999999999  -0.7142 
C  4.7132000000000005  0.9266000000000005  -2.164299999999999 
C  5.2122  -0.31900000000000084  -2.9033999999999995 
C  4.6694  -1.5744000000000007  -2.216799999999999 
C  3.1268000000000002  -1.5579  -2.2369000000000003 
C  5.1593  -1.6166999999999998  -0.7604000000000006 
C  3.1693000000000002  0.9453999999999994  -2.1884999999999994 
H  0.13740000000000002  -2.4803999999999995  -2.606299999999999 
H  -1.0216  -3.7819000000000003  -4.1204 
H  -2.4282999999999997  -3.0060000000000002  -4.847899999999999 
H  -0.9624000000000001  -3.206200000000001  -5.7917000000000005 
H  -1.7236  -0.5531000000000006  -5.929399999999999 
H  -1.5485  1.7996999999999996  -6.2242999999999995 
H  -1.4913  2.7132000000000005  -4.729900000000001 
H  -0.025499999999999967  2.4754000000000005  -5.6738 
H  2.7492  -1.2288999999999994  0.44140000000000157 
H  2.7801  0.5357000000000003  0.46110000000000184 
H  5.0049  -0.39039999999999964  0.9920000000000009 
H  6.2731  0.8735999999999997  -0.6989999999999998 
H  4.8411  1.7621000000000002  -0.1877999999999993 
H  5.091600000000001  1.8122000000000007  -2.6456999999999997 
H  6.2988  -0.3404000000000007  -2.8816000000000006 
H  4.8672  -0.2903000000000002  -3.9237 
H  5.0122  -2.4552999999999994  -2.7439999999999998 
H  2.7808  -1.529300000000001  -3.2552000000000003 
H  2.7628000000000004  -2.4428  -1.7607999999999997 
H  6.2301  -1.6418999999999997  -0.7383000000000006 
H  4.7551000000000005  -2.4929000000000006  -0.2663999999999991 
H  2.8238000000000003  0.9736999999999991  -3.2158999999999995 
H  2.8234000000000004  1.8247  -1.6624999999999996 
