33
unq_CSD-OBEWOK-01-a
F  2.6221  -2.5335  -5.9884 
F  12.3192  -3.3319  -7.9701 
O  8.2317  -2.8124000000000002  -3.238200000000001 
N  1.4707  -0.6584000000000001  -1.4330999999999996 
C  1.2653000000000003  -0.48240000000000005  -2.7324 
H  0.5015000000000001  -0.025600000000000067  -3.0006000000000004 
C  2.1220000000000003  -0.9415  -3.7043 
H  1.9104  -0.8233  -4.5995 
C  3.3114  -1.5881  -3.3454999999999995 
C  3.5299000000000005  -1.7526000000000002  -1.9695999999999998 
H  4.297  -2.1876  -1.67 
C  2.6227  -1.2706000000000002  -1.0569000000000006 
H  2.8020000000000005  -1.3708  -0.1477000000000004 
C  4.2847  -2.1237  -4.3174 
C  3.947  -2.6058000000000003  -5.5958000000000006 
C  4.8031  -3.1835  -6.459700000000001 
H  4.4974  -3.5202  -7.2748 
C  6.1441  -3.2715  -6.1218 
H  6.7522  -3.6652  -6.7 
C  6.567  -2.7558  -4.8921 
C  5.6543  -2.2270000000000003  -4.0143 
H  5.9521  -1.9236  -3.1888000000000005 
C  8.007  -2.8277  -4.4463 
C  9.1117  -2.9624  -5.421600000000001 
C  10.3093  -3.5317000000000003  -4.9862 
H  10.3786  -3.8381000000000003  -4.1119 
C  11.388  -3.6426000000000003  -5.8327 
H  12.1773  -4.034800000000001  -5.540100000000001 
C  11.2763  -3.1644  -7.1111 
C  10.1293  -2.579  -7.5848 
H  10.081900000000001  -2.271  -8.4591 
C  9.0527  -2.4566  -6.731400000000001 
H  8.2805  -2.0315000000000003  -7.027500000000001 
