29
unq_CSD-OFOZAK-01-c
N  0.5872000000000002  -1.4209  1.3116000000000003 
N  -0.19639999999999969  -1.763  2.319099999999999 
N  0.3898999999999999  -2.7419  3.0228 
C  1.6047000000000002  -3.0235  2.468399999999999 
C  2.6414  -3.8943  2.8431999999999995 
C  3.7942  -3.8316999999999997  2.0966000000000005 
C  3.9353  -2.956  0.992799999999999 
C  2.9148000000000005  -2.1232999999999995  0.6029 
C  1.7335000000000003  -2.1707  1.3682999999999996 
N  -2.2255  -6.3276  3.6488999999999994 
N  -1.1204999999999998  -5.6768  3.9133999999999993 
N  -1.3525999999999998  -4.345  3.9612999999999996 
C  -2.6740999999999997  -4.1358999999999995  3.7117000000000004 
C  -3.4402  -2.9669999999999996  3.6167999999999996 
C  -4.7778  -3.1361999999999997  3.3466000000000005 
C  -5.3522  -4.4139  3.181899999999999 
C  -4.6049  -5.5499  3.2531 
C  -3.2313  -5.4005  3.5176999999999996 
B  -0.2629999999999999  -3.3076  4.330499999999999 
H  2.5345000000000004  -4.456799999999999  3.5946 
H  4.4886  -4.3248999999999995  2.3627000000000002 
H  4.7248  -2.8857  0.4687000000000001 
H  2.9903000000000004  -1.5233999999999996  -0.13119999999999976 
H  -3.093  -2.1826  3.7570999999999994 
H  -5.3438  -2.4023  3.2714999999999996 
H  -6.215  -4.456799999999999  3.0848999999999993 
H  -4.9489  -6.3904  3.099 
H  0.5932000000000004  -3.8306  4.902699999999999 
H  -0.7241  -2.4463  4.7963000000000005 
