18
unq_CSD-OGASUN-01-a
C  -0.3926999999999996  -2.3649  -1.6854 
H  0.4964000000000004  -2.1991  -1.9776 
C  -0.9828000000000001  -3.5343  -2.0415 
H  -0.47769999999999957  -4.1749  -2.5281000000000002 
C  -2.3331999999999997  -3.8285  -1.7089 
H  -2.3457  -4.4855  -0.968 
H  -2.7733  -4.2472  -2.4901999999999997 
C  -3.1162  -2.6229000000000005  -1.3006000000000002 
C  -4.5177  -2.632  -1.2549000000000001 
H  -4.9814  -3.4031000000000002  -1.5575999999999999 
C  -5.2402999999999995  -1.5644  -0.7892999999999999 
H  -6.1894  -1.5946000000000002  -0.7619000000000002 
C  -4.5629  -0.45450000000000035  -0.3639999999999999 
H  -5.0485999999999995  0.2873000000000001  -0.023600000000000065 
C  -3.1834  -0.3977000000000004  -0.4222999999999999 
H  -2.743  0.3979999999999997  -0.14880000000000004 
C  -2.4182  -1.4709000000000003  -0.8705000000000003 
N  -1.0347  -1.3838000000000004  -0.9016000000000002 
