28
unq_CSD-ADUGIS-01-d
C  -1.6098999999999988  -2.348  -1.1529000000000007 
H  -1.3580999999999994  -2.1028000000000002  -0.29299999999999926 
O  0.9616000000000007  4.0604  -2.1243 
N  -1.7382999999999988  -1.8799000000000001  -3.5236 
C  -1.3956999999999988  -1.5550000000000002  -2.1919000000000004 
N  -0.28439999999999976  1.7118000000000002  -2.4705999999999992 
C  -0.3287999999999993  2.6571  -3.5336 
C  -2.2112999999999987  -3.5274  -1.4037000000000006 
H  -2.382699999999999  -4.0903  -0.6851000000000003 
C  0.3435000000000006  4.853400000000001  -4.3477 
H  0.8022000000000009  5.651400000000001  -4.2163 
C  0.32340000000000124  3.8838999999999997  -3.3465000000000007 
C  -1.0203999999999986  2.4664  -4.7239 
H  -1.4966999999999988  1.6784999999999997  -4.8573 
C  -2.341099999999999  -3.1087000000000002  -3.720700000000001 
H  -2.583599999999999  -3.3680000000000003  -4.5806000000000004 
C  -1.009599999999999  3.4379999999999997  -5.725099999999999 
H  -1.4661999999999988  3.2885999999999997  -6.5214 
C  -2.585099999999999  -3.9531  -2.659700000000001 
H  -2.987399999999999  -4.7814  -2.7871000000000006 
C  1.5252000000000017  5.3306000000000004  -1.8496000000000006 
H  1.936300000000001  5.3185  -0.9817 
H  0.8366000000000007  5.9975000000000005  -1.8674999999999997 
H  2.1874000000000002  5.5374  -2.5144 
C  -0.3213999999999988  4.6204  -5.539999999999999 
H  -0.30739999999999945  5.26  -6.2148 
N  -0.7805  0.5808  -2.8329000000000004 
N  -0.8279999999999994  -0.31099999999999994  -1.8376000000000001 
