15
unq_CSD-AQAJUX-01-a
N  0.0  0.0  1.9823999999999984 
N  -0.46030000000000015  -0.5074000000000005  4.1164999999999985 
C  -0.6328999999999994  -0.8421999999999983  2.8323 
H  -1.1480999999999995  -1.5874999999999986  2.5473 
C  -0.7557999999999989  -1.009599999999999  5.314299999999999 
H  0.07060000000000066  -1.2004999999999981  5.8033 
H  -1.270999999999999  -1.8359999999999985  5.201799999999999 
H  -1.289299999999999  -0.35829999999999984  5.816399999999998 
N  0.46030000000000015  0.5073000000000008  4.1164999999999985 
C  0.6329000000000011  0.8421000000000021  2.8323 
H  1.1481000000000012  1.5874000000000024  2.5473 
C  0.7558000000000007  1.0095000000000027  5.314299999999999 
H  -0.07059999999999889  1.200400000000002  5.8033 
H  1.2710000000000008  1.8359000000000023  5.201799999999999 
H  1.2893000000000008  0.3582000000000001  5.816399999999998 
