11
unq_CSD-AVOQOR-01-a
Cl  -0.13259999999999994  0.2563999999999993  5.718200000000001 
O  -0.3822  -2.7419000000000002  0.8564000000000003 
O  -0.8298  -2.6491000000000007  5.3824000000000005 
N  0.0010999999999999899  -0.7593999999999994  1.8834000000000004 
N  -0.5699000000000001  -2.6671000000000005  3.1128000000000005 
H  -0.7619  -3.5063000000000004  3.1047 
C  -0.31320000000000003  -2.0768000000000004  1.8996999999999997 
C  -0.5465  -2.040700000000001  4.339 
C  -0.19099999999999995  -0.6537000000000006  4.254100000000001 
C  0.04859999999999998  -0.08789999999999942  3.0524 
H  0.25850000000000006  0.8182999999999989  3.0296 
