29
unq_CSD-ROWZOU-01-d
N  -0.46589999999999954  -1.7443000000000008  -1.2134000000000005 
C  -0.37020000000000053  -3.1403  -0.7678000000000003 
H  -1.2873  -3.5047999999999995  -0.6817000000000002 
H  0.0389999999999997  -3.1529000000000007  0.13309999999999977 
C  0.4307999999999996  -4.067500000000001  -1.6696000000000004 
C  1.8142999999999994  -4.1678  -1.5655000000000006 
H  2.276399999999999  -3.6203000000000003  -0.9418000000000002 
C  2.5326000000000004  -5.0558  -2.3605000000000005 
H  3.4757999999999996  -5.1151  -2.2692000000000005 
C  1.8796999999999997  -5.8537  -3.2833000000000006 
H  2.370099999999999  -6.466  -3.8204000000000002 
C  0.5056999999999992  -5.7518  -3.4170000000000003 
H  0.05010000000000048  -6.2847  -4.057600000000001 
C  -0.20760000000000112  -4.8674  -2.612 
H  -1.150500000000001  -4.8094  -2.7091000000000003 
C  -1.0563000000000002  -1.6453000000000007  -2.5393000000000003 
H  -0.5144000000000002  -2.1930999999999994  -3.1625000000000005 
H  -0.9900000000000002  -0.7035999999999998  -2.8392000000000004 
C  -2.5176000000000007  -2.0859000000000005  -2.6598000000000006 
C  -2.9961  -2.5993999999999993  -3.8526000000000002 
H  -2.4055  -2.7157  -4.587400000000001 
C  -4.3361  -2.9472000000000005  -3.9817000000000005 
H  -4.6574  -3.2773000000000003  -4.8131 
C  -5.2054  -2.8177000000000003  -2.9171000000000005 
H  -6.1197  -3.0587  -3.0114 
C  -4.735  -2.3367000000000004  -1.7182000000000004 
H  -5.3205  -2.2535000000000007  -0.9762000000000004 
C  -3.4013  -1.9718  -1.5952000000000002 
H  -3.0867000000000004  -1.636800000000001  -0.7639000000000005 
