83
unq_CSD-SAHSUQ-01-a
N  1.0646000000000004  -1.2453  -2.9009 
N  1.902800000000001  -0.044300000000000006  -1.022400000000001 
N  3.053600000000001  1.0144000000000002  0.7650999999999986 
F  3.6364  1.1404  -2.8027000000000015 
F  3.383799999999999  -0.5188999999999999  -4.200500000000002 
F  0.9045000000000005  1.8432  -3.5144 
F  1.2281000000000013  0.5373000000000001  -5.2361 
F  3.001099999999999  3.332  -4.130400000000002 
F  3.6816000000000013  1.9331  -5.622000000000002 
F  1.8101000000000003  2.9753999999999996  -5.878900000000002 
F  5.320000000000002  0.6166  -0.781600000000001 
F  4.3468  -1.1181  -1.6984000000000012 
F  5.489200000000002  -0.5013000000000001  1.5183 
F  3.8742  -1.9152  1.1204999999999998 
F  6.859500000000002  -1.7427000000000001  -0.6732000000000014 
F  5.344900000000001  -3.2801  -0.5748000000000015 
F  6.537100000000001  -2.8246  1.1583999999999985 
C  0.0536000000000012  -1.9216  -2.1606000000000005 
C  -1.2830999999999992  -1.5964  -2.492700000000001 
C  -2.3087  -2.2354000000000003  -1.7835 
H  -3.212999999999999  -2.0106  -1.9678000000000004 
C  -2.029299999999999  -3.1859  -0.8226000000000013 
H  -2.7387999999999995  -3.5850999999999997  -0.3332000000000015 
C  -0.719199999999999  -3.5608  -0.5673000000000012 
H  -0.5447999999999986  -4.2473  0.06659999999999933 
C  0.35160000000000124  -2.9426  -1.2300000000000004 
C  -1.6057999999999986  -0.5836000000000001  -3.5594 
H  -0.7716999999999992  -0.4132  -4.0822 
C  -2.6792  -1.0918  -4.537600000000001 
H  -2.393699999999999  -1.9478  -4.920300000000001 
H  -2.801499999999999  -0.4374  -5.256900000000002 
H  -3.524899999999999  -1.2143000000000002  -4.058900000000001 
C  -2.0519999999999996  0.7467000000000001  -2.9375 
H  -2.8992999999999984  0.6175000000000002  -2.4627000000000017 
H  -2.1723  1.4139  -3.6457000000000015 
H  -1.3696000000000002  1.0585999999999998  -2.3077000000000005 
C  1.7878000000000007  -3.4062  -1.0091 
H  2.3541000000000007  -2.587  -0.9248000000000012 
C  2.2886000000000006  -4.1835  -2.2326000000000015 
H  1.7562000000000015  -4.9989  -2.341000000000001 
H  3.230600000000001  -4.422499999999999  -2.1044 
H  2.1990999999999996  -3.625  -3.0325000000000006 
C  1.9856000000000016  -4.2291  0.27009999999999934 
H  1.6418  -3.7265  1.0380999999999982 
H  2.940900000000001  -4.4092  0.3981999999999992 
H  1.4998000000000005  -5.077500000000001  0.19159999999999933 
C  1.8775000000000013  -0.4381999999999999  -2.3384 
C  2.7187  0.3205  -3.3871 
C  1.844800000000001  1.2483  -4.2827 
C  2.6141000000000023  2.3949999999999996  -4.9952000000000005 
C  3.000300000000001  0.30410000000000004  -0.29740000000000144 
C  4.377599999999999  -0.3307  -0.5877000000000017 
C  4.8969000000000005  -1.2415  0.5612999999999992 
C  5.932599999999999  -2.2952  0.09359999999999857 
C  1.9042000000000012  1.6593  1.3072999999999997 
C  1.3237000000000005  2.7908  0.6782999999999983 
C  0.27640000000000065  3.4349999999999996  1.3454999999999995 
H  -0.13699999999999868  4.187  0.9380999999999986 
C  -0.1758999999999986  3.0099  2.580099999999998 
H  -0.8917000000000002  3.4669  3.0075000000000003 
C  0.4140000000000015  1.9176000000000002  3.1935000000000002 
H  0.09920000000000151  1.6326  4.043900000000001 
C  1.4641000000000002  1.2268  2.5840999999999994 
C  1.8889000000000014  3.3243  -0.6242000000000001 
H  2.1290000000000013  2.5351999999999997  -1.1897000000000002 
C  0.8856999999999999  4.1711  -1.4201000000000015 
H  0.05120000000000147  3.6699  -1.5296000000000003 
H  1.2599  4.3792  -2.3011000000000017 
H  0.7063000000000006  5.0039  -0.9364000000000008 
C  3.184300000000002  4.1118  -0.36210000000000164 
H  2.9888999999999992  4.8831  0.2098999999999993 
H  3.5554000000000006  4.4239  -1.2147000000000006 
H  3.8358000000000008  3.5309  0.08499999999999908 
C  2.1061000000000014  0.03200000000000003  3.2617999999999974 
H  2.9703999999999997  -0.14860000000000007  2.7926 
C  1.2431  -1.2073  3.115199999999998 
H  0.37230000000000096  -1.0512000000000001  3.537399999999998 
H  1.6843000000000004  -1.9659  3.550699999999999 
H  1.1141000000000005  -1.4053  2.1644000000000005 
C  2.4320000000000004  0.30580000000000007  4.732599999999998 
H  2.952  1.1322999999999999  4.803699999999999 
H  2.9537999999999993  -0.44100000000000006  5.095299999999998 
H  1.599400000000001  0.39880000000000004  5.240299999999998 
