21
unq_CSD-SENGEA-01-a
C  0.39559999999999995  -1.4311999999999996  -3.9459999999999997 
C  0.36799999999999944  -1.3321999999999994  -5.3803 
C  0.43459999999999965  -2.4798999999999998  -6.1901 
H  0.4823999999999993  -3.319  -5.791200000000001 
C  0.4302999999999999  -2.3821  -7.5482000000000005 
C  0.32010000000000005  -1.1598999999999995  -8.2902 
C  0.23219999999999974  -0.018199999999999328  -7.3981 
C  0.24259999999999948  -0.10839999999999961  -6.027900000000001 
H  0.1642999999999999  0.6673  -5.521100000000001 
N  0.5569999999999995  -2.5595999999999997  -3.2391000000000005 
H  0.6813999999999991  -3.3394  -3.5801 
N  0.4963999999999995  -2.2983  -1.9306 
N  0.29629999999999956  -1.0332  -1.8496000000000006 
N  0.22999999999999954  -0.45650000000000013  -3.0660000000000007 
N  0.4853999999999994  -3.6363999999999996  -8.272 
N  0.007399999999999629  1.2774  -7.9755 
O  -0.04970000000000052  -4.6159  -7.7128000000000005 
O  1.0248999999999997  -3.7144999999999997  -9.372300000000001 
O  0.23609999999999953  -1.0877  -9.5272 
O  0.5376000000000003  1.5663  -9.0443 
O  -0.7084000000000001  2.0957  -7.3582 
