18
unq_CSD-SETCIE-01-a
C  -1.1821000000000002  2.4493000000000005  1.5559000000000012 
C  -0.4070999999999998  3.5892000000000004  1.6062000000000012 
H  0.5043999999999986  3.5298000000000003  1.7804000000000002 
C  -1.0035000000000007  4.830400000000001  1.393600000000001 
C  -2.3602000000000007  4.9085  1.1072000000000006 
H  -2.748500000000001  5.738000000000001  0.9441000000000006 
C  -3.146700000000001  3.7571999999999997  1.0622000000000007 
C  -2.5471000000000004  2.5245  1.2978000000000005 
H  -3.0595000000000008  1.7482000000000002  1.2824000000000009 
C  -0.16990000000000016  6.085700000000001  1.484300000000001 
H  -4.8802  3.1595  0.8361999999999998 
H  -4.907300000000001  4.5229  0.9268000000000001 
N  -0.5811000000000011  1.1549  1.7262000000000004 
H  -1.1565000000000003  0.6531000000000002  2.2026000000000003 
H  0.15329999999999977  1.2654999999999998  2.2345000000000006 
N  -4.4949  3.8345  0.7254000000000005 
O  1.0694  5.985200000000001  1.5907 
O  -0.7823000000000011  7.197000000000001  1.4314 
