26
unq_CSD-SUSTIL-01-a
N  -1.7426  -0.1208999999999989  -0.8222000000000005 
Si  -2.9714  0.9959000000000007  -1.2629000000000001 
C  -4.4364  0.8350000000000009  -0.10160000000000036 
C  -4.9236  1.9131  0.6360999999999999 
C  -5.9175  1.7359000000000009  1.5979 
C  -6.4373000000000005  0.48879999999999946  1.8326000000000002 
C  -5.9862  -0.5968  1.1098 
C  -5.0001999999999995  -0.4217999999999993  0.15160000000000018 
C  -3.519  0.6819000000000006  -3.0287 
C  -4.8566  0.5195000000000007  -3.3799 
C  -5.234299999999999  0.2773000000000003  -4.695 
C  -4.2768  0.19250000000000078  -5.6838999999999995 
C  -2.9427  0.3439999999999994  -5.3596 
C  -2.5652999999999997  0.5847999999999995  -4.0463000000000005 
H  -2.0029  -0.9104000000000001  -0.8655999999999997 
H  -2.4823  2.2756000000000007  -1.1383 
H  -4.5684  2.7927  0.47309999999999963 
H  -6.2436  2.4893  2.0948 
H  -7.1046  0.3611000000000004  2.5058999999999996 
H  -6.355  -1.4655999999999993  1.2746000000000004 
H  -4.6914  -1.1787  -0.3512000000000004 
H  -5.526999999999999  0.5686  -2.6959 
H  -6.1671  0.16610000000000014  -4.9146 
H  -4.5302999999999995  0.023699999999999832  -6.5941 
H  -2.2733  0.2827000000000002  -6.0405 
H  -1.6377  0.6893000000000011  -3.8342 
