16
unq_CSD-TABTIB-01-a
S  1.4770000000000003  2.7077999999999998  -0.23519999999999985 
N  1.5702999999999996  1.0817  -0.04889999999999972 
H  2.3414  0.7094  0.028400000000000425 
C  3.0968999999999998  3.393  0.29520000000000035 
C  4.208399999999999  3.0202999999999998  -0.6793999999999998 
H  3.8423  2.9303999999999997  -1.5613000000000001 
H  4.6030999999999995  2.1881999999999997  -0.4097999999999997 
H  4.877699999999999  3.7083  -0.6779999999999999 
C  2.8284000000000002  4.8965000000000005  0.26010000000000044 
H  3.0452999999999992  5.2391000000000005  -0.6105999999999998 
H  3.369299999999999  5.333  0.9215 
H  1.9003999999999994  5.0599  0.44679999999999964 
C  3.4024  2.9137  1.7035999999999998 
H  2.6861999999999995  3.1681  2.2906000000000004 
H  4.2218  3.3108  2.0069999999999997 
H  3.491199999999999  1.9570999999999998  1.7035999999999998 
