16
unq_CSD-TAVHOO-01-a
N  0.4757  -0.3286  1.8803999999999998 
H  -0.3467999999999999  -0.538  2.0723000000000003 
C  1.6854000000000002  -0.861  2.379299999999999 
C  2.6549000000000005  -1.3832  1.5084999999999997 
H  2.5126999999999997  -1.3493  0.5701999999999998 
C  3.8229999999999995  -1.9498000000000002  2.0100999999999996 
H  4.4535  -2.3085  1.395999999999999 
C  4.0988999999999995  -2.0128  3.322899999999999 
C  3.1537999999999995  -1.4594999999999998  4.196299999999999 
H  3.3351999999999995  -1.4594  5.129299999999999 
C  1.9871999999999999  -0.9236  3.754299999999999 
H  1.3621  -0.5847  4.3842 
C  5.372199999999999  -2.6733  3.8483 
H  5.6034999999999995  -3.4374000000000002  3.2791999999999994 
H  5.225  -2.9826  4.7667 
H  6.1068999999999996  -2.0237  3.8363999999999994 
