26
unq_CSD-TAWQAK-01-c
N  1.7081  0.20829999999999993  2.1163 
N  3.4581999999999997  0.055399999999999894  3.4646 
N  8.787500000000001  -0.6592  5.0712 
N  10.5791  -0.6283000000000001  6.366899999999999 
C  2.9929000000000006  -0.07810000000000006  2.1917999999999997 
C  1.3314000000000004  0.5345  3.4075999999999995 
C  2.3866000000000014  0.4456  4.2453 
C  4.811300000000001  -0.13939999999999997  3.8673 
C  5.0907  -0.6539  5.1277 
C  6.410399999999999  -0.8257  5.5168 
C  7.435100000000002  -0.4861000000000001  4.6493 
C  7.1587  0.010099999999999998  3.3803 
C  5.841800000000001  0.1943999999999999  2.9974 
C  9.2849  -0.389  6.303699999999999 
C  10.929000000000002  -1.0628  5.1103 
C  9.847000000000001  -1.0803  4.2985999999999995 
H  3.5356000000000005  -0.3527  1.4358999999999997 
H  0.4352999999999998  0.7930000000000001  3.6703 
H  2.3907000000000007  0.6147999999999998  5.2008 
H  4.3659  -0.8928  5.725 
H  6.616700000000002  -1.1771  6.396699999999999 
H  7.881800000000002  0.22419999999999995  2.7706 
H  5.6348  0.554  2.12 
H  8.7531  -0.062100000000000044  7.045999999999999 
H  11.8278  -1.3189  4.8476 
H  9.8214  -1.3353000000000002  3.3629999999999995 
