30
unq_CSD-TEDPOI-01-a
C  6.3649000000000004  -1.7676  2.6783 
C  6.798299999999999  -0.633  3.5551000000000013 
H  7.6568000000000005  -0.8334000000000001  3.936300000000001 
H  6.1587  -0.5078  4.2591 
H  6.8614  0.1694  3.032400000000001 
C  2.6677  -1.5411000000000001  0.5186000000000011 
C  2.9998000000000005  -0.5438000000000001  1.4266000000000005 
H  2.4222  0.1743999999999999  1.553700000000001 
C  4.174200000000001  -0.6074999999999999  2.141 
H  4.382999999999999  0.06969999999999965  2.7429000000000006 
C  5.049099999999999  -1.6718000000000002  1.9723000000000006 
C  4.712  -2.6769000000000003  1.078800000000001 
H  5.2857  -3.4017  0.9685000000000006 
C  3.5416000000000007  -2.6209000000000002  0.3520000000000003 
H  3.3348999999999993  -3.2998000000000003  -0.24990000000000023 
C  -0.06930000000000014  -3.0595000000000003  -2.8115999999999994 
C  -1.2264999999999997  -2.9028  -3.5779999999999994 
C  -1.5365000000000002  -3.7307  -4.608899999999999 
H  -2.3137  -3.5972  -5.102499999999999 
C  -0.6913999999999998  -4.764  -4.9213 
H  -0.8895999999999997  -5.3304  -5.6315 
C  0.44709999999999983  -4.9589  -4.1777999999999995 
H  1.0123999999999995  -5.6677  -4.3839999999999995 
C  0.7626999999999997  -4.125500000000001  -3.1365 
H  1.5388000000000002  -4.2733  -2.6449999999999996 
N  1.4798999999999998  -1.4149  -0.21640000000000015 
N  1.2638999999999996  -2.3120000000000003  -1.1684 
N  0.1604000000000001  -2.1082  -1.7788000000000004 
O  7.0685  -2.7256  2.5221 
F  -2.0703  -1.8944  -3.2730999999999995 
