15
unq_CSD-TEMKAX-01-d
O  1.4857000000000005  -2.3677  2.6045000000000003 
N  1.4240000000000004  -0.9407000000000001  0.3889 
N  2.5072  -1.5236  0.7058 
C  2.511  -2.2294  1.903 
C  3.787  -2.8419000000000003  2.2977000000000003 
C  4.988500000000001  -2.3534000000000006  1.818 
C  6.193700000000001  -2.9586000000000006  2.2026 
C  6.1522  -4.026400000000001  3.0756 
C  4.989999999999999  -4.505  3.5437999999999996 
C  3.7776000000000005  -3.9308000000000005  3.1736 
H  4.9905  -1.6007000000000002  1.2229999999999994 
H  7.032100000000001  -2.6325000000000003  1.8698000000000001 
H  6.9743  -4.4389  3.3507000000000002 
H  4.9956000000000005  -5.2576  4.1402 
H  2.9461000000000004  -4.268400000000001  3.515 
