8
unq_CSD-LIJQAY-01-a
N  -0.3838999999999997  -1.7309999999999999  -0.9297999999999997 
N  -1.2164999999999997  -1.8614000000000002  -2.006 
N  -1.1846999999999999  -3.1105  -2.391 
N  -0.33899999999999997  -3.8208  -1.5993999999999997 
N  1.0764999999999998  -3.2488  0.22090000000000032 
H  1.1221999999999999  -2.6349  0.8238000000000003 
H  1.0390000000000001  -4.0808  0.44179999999999975 
C  0.13380000000000036  -2.9328000000000003  -0.7256999999999998 
