27
unq_CSD-LIYRAP-01-b
N  -0.9233  -1.4094999999999995  0.8719999999999999 
C  -1.3277999999999999  -3.3242  2.1309000000000005 
C  -4.5182  -1.7971999999999992  -0.05999999999999872 
H  -5.2003  -1.4082  -0.5580999999999996 
C  -0.3813  -2.3291999999999993  1.7718000000000007 
C  -2.2422  -1.8167  0.6827000000000005 
C  -2.5422000000000002  -2.9840999999999998  1.4449000000000005 
C  -3.8276  -3.5342999999999996  1.4526000000000003 
H  -4.0115  -4.2981  1.9503000000000004 
C  -3.2515  -1.2303999999999995  -0.11569999999999858 
C  -2.9859999999999998  -0.05689999999999973  -1.013399999999999 
H  -2.4072  -0.32679999999999954  -1.730199999999999 
H  -2.5654  0.6433  -0.5088999999999988 
H  -3.8155  0.2633000000000001  -1.3751999999999995 
C  0.9180999999999999  -2.3533  2.3099000000000007 
C  -4.8159  -2.9280999999999997  0.7118000000000002 
H  -5.6812  -3.2686999999999995  0.7235000000000014 
C  1.233  -3.4042999999999997  3.158800000000001 
H  2.0876  -3.4439999999999995  3.5235000000000003 
C  0.3115000000000001  -4.4092  3.488100000000001 
H  0.5685  -5.1042  4.0502 
C  -0.9665999999999999  -4.3744  2.9863 
H  -1.5811  -5.035699999999999  3.2101000000000006 
C  1.9229000000000003  -1.2919999999999998  1.9791000000000007 
H  2.0259  -1.2344999999999997  1.0265000000000004 
H  2.7667  -1.5145999999999997  2.3794000000000004 
H  1.6200999999999999  -0.4471999999999996  2.3200000000000003 
