47
unq_CSD-LOKNEG-01-a
N  1.0791999999999993  -1.2374  1.1149 
C  1.0701999999999998  -1.6558  2.4397 
C  2.294299999999999  -1.8077  3.0811 
H  3.0849  -1.6822  2.6093 
C  2.333899999999999  -2.1468  4.4294 
C  1.1510999999999996  -2.3339  5.1346 
C  -0.07140000000000057  -2.182  4.4915 
H  -0.8637000000000006  -2.3075  4.965 
C  -0.11270000000000024  -1.8451  3.1449 
H  -0.931  -1.7416  2.715 
C  2.870399999999999  -2.5915  6.6407 
C  1.4859  -2.5915  6.5198 
C  0.6921999999999997  -2.8447  7.633 
H  -0.23460000000000036  -2.8447  7.5541 
C  1.2828999999999997  -3.0957  8.8671 
H  0.7516999999999996  -3.2631  9.611 
C  2.667699999999999  -3.0935  8.9864 
H  3.0629  -3.2609  9.8108 
C  3.4615  -2.8425  7.8731 
H  4.387899999999999  -2.8403  7.9537 
C  3.9121999999999995  -7.332  4.4932 
H  4.5081999999999995  -8.0564  4.2934 
H  3.512999999999999  -7.4729  5.3545 
H  3.2237999999999998  -7.2902  3.8249 
C  4.6773  -6.0417  4.5016 
H  5.3755  -6.088  5.1732 
H  5.1003  -5.914  3.6385 
C  3.7488  -4.8285  4.8055 
H  3.3135000000000003  -4.9827  5.6585 
H  3.0559000000000003  -4.7955  4.1271 
C  4.424499999999999  -3.4899  4.8542 
H  5.1757  -3.5449  5.4654 
H  4.778  -3.2895  3.9743 
C  3.528999999999999  -2.3361  5.2907 
C  4.3678  -1.0481  5.321 
H  4.791099999999999  -0.9336  4.4562 
H  5.0737  -1.1537  5.9792 
C  3.5852999999999993  0.2092  5.6484 
H  2.8836000000000004  0.3237  4.9885 
H  3.1629999999999994  0.1013  6.5148 
C  4.4571  1.4884  5.6752 
H  4.9119  1.5809  4.8223 
H  5.1339  1.3981  6.3637 
C  3.6452999999999998  2.7214  5.9389 
H  4.222599999999999  3.4877  5.9523 
H  2.988599999999999  2.8271  5.2471 
H  3.2040999999999995  2.6378  6.7885 
