27
unq_CSD-LOKNIK-01-a
O  -5.6195  0.9479  9.97 
N  -0.48360000000000003  -0.6827  1.7929 
C  -1.0594999999999999  -0.3127  2.9308 
C  -0.7610999999999999  -0.9529  4.1496 
H  -0.09839999999999982  -1.6045  4.1673 
C  -1.4306  -0.6336  5.3316 
H  -1.1928  -1.0642  6.1206 
C  -2.4356  0.3062  5.3523 
C  -2.7131  0.9758  4.1643 
H  -3.3647  1.6388  4.1629 
C  -2.0493999999999994  0.686  2.9911 
H  -2.2617000000000003  1.1608  2.2213 
C  -3.2569  0.5206  6.5652 
C  -2.8249  0.1948  7.8311 
H  -1.9618000000000002  -0.1359  7.9401 
C  -3.618  0.3422  8.9337 
H  -3.2881  0.1064  9.7698 
C  -4.8894  0.8284  8.8262 
C  -5.3583  1.1722  7.6162 
H  -6.2146  1.521  7.5279 
C  -4.5389  0.9987  6.4783 
H  -4.8822  1.2164  5.6422 
C  -6.9051  1.4817  9.8978 
H  -7.2898  1.5095  10.7781 
H  -7.4481  0.9332  9.3282 
H  -6.8629999999999995  2.3707  9.5401 
H  -0.049900000000000055  -1.3425  1.8989 
