39
unq_CSD-PAQDUH-01-a
Si  0.4308000000000005  -2.8864  0.6225 
N  -0.5065999999999997  -1.7391000000000005  -0.24109999999999987 
C  1.6021999999999998  -3.8539000000000003  -0.44819999999999993 
H  1.6488999999999994  -4.769500000000001  -0.13059999999999983 
H  2.4848  -3.452  -0.4058999999999999 
H  1.2858999999999998  -3.8444000000000003  -1.364 
C  1.4516  -1.8961000000000006  1.8411999999999997 
H  1.9169  -2.5010000000000003  2.4394 
H  0.8676000000000004  -1.3172999999999995  2.356 
H  2.0984  -1.3577000000000012  1.3582 
C  -0.5521000000000003  -4.1154  1.6307999999999998 
H  -0.10810000000000031  -4.977200000000001  1.6136 
H  -1.4424000000000001  -4.2024  1.2549000000000001 
H  -0.6171999999999995  -3.8026  2.5465999999999998 
C  -1.5965999999999996  -2.0159000000000002  -1.1833999999999998 
C  -1.5823  -0.9728000000000012  -2.3566000000000003 
H  -1.6805000000000003  -0.07010000000000005  -1.9887 
H  -0.7198000000000002  -1.0180000000000007  -2.8197 
C  -2.9184  -1.9269999999999996  -0.5025 
H  -3.0069  -1.046800000000001  -0.0817000000000001 
H  -2.9647  -2.6054000000000004  0.20290000000000008 
C  -1.4355000000000002  -3.3864  -1.8815 
H  -1.3773999999999997  -4.089  -1.2012 
H  -0.5994999999999999  -3.3925  -2.3923 
C  -2.7276  -1.2415000000000003  -3.3756 
H  -2.6894  -0.5785999999999998  -4.1087 
C  -4.1023  -2.1415000000000006  -1.5083 
H  -4.9691  -2.065200000000001  -1.0358 
C  -2.6284  -3.7016  -2.8449 
H  -2.5345999999999997  -4.6055  -3.2379 
C  -2.5897  -2.6286000000000005  -3.9327 
H  -1.7424  -2.6968000000000005  -4.4197 
H  -3.3158  -2.7926  -4.5706 
C  -4.017799999999999  -1.1039000000000012  -2.6292 
H  -4.767799999999999  -1.2265999999999995  -3.2472 
H  -4.0819  -0.20279999999999987  -2.2494 
C  -3.9135  -3.5871000000000004  -2.0548 
H  -3.8935  -4.2197000000000005  -1.3058 
H  -4.672  -3.8212  -2.6292 
