19
unq_CSD-MAMKAP-01-c
N  2.9292000000000007  -0.40310000000000024  0.8522999999999996 
N  2.1324000000000005  -0.3407  -0.23390000000000022 
N  2.7898000000000005  -0.5983999999999998  -1.3719000000000001 
C  4.0598  -0.8559000000000001  -1.0030000000000001 
C  4.1400999999999994  -0.7338000000000005  0.38539999999999974 
C  5.096700000000001  -1.1071999999999997  -2.0196 
O  4.8761  -1.3049  -3.1916 
O  6.3212  -1.0637999999999996  -1.4815 
C  7.407700000000001  -1.2868000000000004  -2.4078999999999997 
H  7.3016  -2.1654  -2.8302 
H  8.2604  -1.2587000000000002  -1.9253999999999998 
H  7.3991999999999996  -0.5892  -3.0959000000000003 
C  5.2175  -1.0903  1.3357999999999999 
O  5.7785  -2.1506  1.3508000000000004 
O  5.439000000000001  -0.12340000000000018  2.2274000000000003 
C  6.3935  -0.4993999999999996  3.2701000000000002 
H  6.041100000000001  -1.2614999999999998  3.7753999999999994 
H  6.5286  0.25849999999999973  3.8765 
H  7.2471000000000005  -0.7449999999999992  2.8575999999999997 
