15
unq_CSD-PAQLEY-01-c
N  1.3037  0.7045999999999992  -1.4164000000000003 
O  0.8269000000000002  2.9633000000000003  -1.249 
O  2.7962000000000002  3.142199999999999  -3.4415000000000004 
C  2.1866  -0.05059999999999931  -2.2156000000000002 
C  2.3666000000000005  -1.4166999999999987  -2.1884 
C  3.3298  -1.9568999999999992  -3.0503 
C  4.0641  -1.1762999999999995  -3.9102 
C  3.8835  0.19150000000000134  -3.9499000000000004 
C  2.9469  0.7498000000000005  -3.0859 
C  2.4907  2.119500000000002  -2.8809 
C  1.4252000000000002  2.0183  -1.7386000000000004 
H  1.8683  -1.9587000000000003  -1.6193 
H  3.4774  -2.8747999999999987  -3.0399000000000003 
H  4.6892  -1.5739  -4.4729 
H  4.3726  0.7226999999999997  -4.5336 
