15
unq_CSD-AYADIN02-01-e
N  0.6088000000000005  1.4605000000000001  -1.6887 
N  1.6917  5.5100999999999996  -4.6482 
N  1.7518000000000002  6.0418  -5.8764 
N  1.4249  5.135300000000001  -6.77 
N  1.1385000000000005  3.986  -6.1412 
C  0.9958  2.7045  -1.4479 
H  1.3472  2.8718999999999997  -0.6093 
C  1.2374999999999998  3.6317  -2.4459 
H  1.8274999999999997  4.378  -2.2581 
C  1.0818000000000003  3.2853  -3.7573 
C  0.7183000000000002  2.0024  -3.9956 
H  0.3908000000000005  1.7851000000000004  -4.8386 
C  0.4817  1.1416  -2.9506 
H  0.026500000000000412  0.35009999999999986  -3.1286 
C  1.3025000000000002  4.2461  -4.8408 
