25
unq_CSD-AZASEZ-01-c
F  -0.9026999999999994  -6.123600000000003  -5.678099999999999 
F  -4.1994  4.828800000000001  -2.631899999999999 
N  -0.5634999999999994  -1.7280999999999977  -2.3134999999999994 
N  -1.2715999999999994  -0.7094999999999985  -2.6414999999999997 
N  -1.1606000000000005  0.2674000000000021  -1.754199999999999 
C  -1.9308999999999994  1.4080999999999975  -2.060199999999999 
C  -2.0222999999999995  2.3821999999999974  -1.068299999999999 
C  -2.775499999999999  3.5352999999999994  -1.2845999999999993 
C  -3.4290000000000003  3.6944000000000017  -2.4594999999999994 
C  -3.3561999999999994  2.7819000000000003  -3.4663999999999993 
C  -2.599  1.6287999999999982  -3.2623999999999995 
C  -0.7114999999999991  -2.804400000000001  -3.241299999999999 
C  0.2171000000000003  -3.8252000000000024  -3.118199999999999 
C  0.15660000000000096  -4.953499999999998  -3.9605999999999995 
C  -0.8443000000000005  -5.0172000000000025  -4.8858 
C  -1.7555999999999994  -4.048099999999998  -5.009799999999999 
C  -1.6998999999999995  -2.9268  -4.182199999999999 
H  -1.5587999999999997  2.3185000000000002  -0.18009999999999948 
H  -2.819699999999999  3.9562000000000026  -0.6900999999999993 
H  -3.7736  2.9658000000000015  -4.392399999999999 
H  -2.4964999999999993  1.080599999999997  -3.8999999999999995 
H  0.8138000000000005  -3.8464000000000027  -2.554499999999999 
H  0.9435000000000002  -5.523000000000003  -3.9262999999999995 
H  -2.380799999999999  -4.143500000000003  -5.693899999999999 
H  -2.410499999999999  -2.3397000000000006  -4.269299999999999 
