20
unq_CSD-BEPQIW-01-d
O  1.2461000000000002  0.8572999999999986  2.7401999999999997 
O  -2.3381000000000007  0.0027999999999988034  1.3977000000000004 
N  0.09789999999999921  0.5927999999999987  2.2817 
N  -0.4637000000000011  1.5854  5.439000000000001 
C  -0.9474  0.7439999999999998  3.0724 
C  -2.2507  0.4372999999999987  2.5151000000000003 
C  -0.7052000000000014  1.2089999999999996  4.3957 
C  -3.500800000000001  0.7337999999999987  3.2454 
C  -4.6881  0.2759999999999998  2.4492000000000003 
H  -4.616600000000001  -0.6700999999999997  2.2954999999999997 
H  -5.494700000000001  0.46059999999999945  2.9379 
H  -4.7098  0.7352999999999987  1.6090999999999998 
C  -3.5963000000000003  2.233599999999999  3.498 
H  -2.8368  2.5256999999999987  4.0086 
H  -3.6152000000000006  2.6986999999999988  2.6578999999999997 
H  -4.400100000000001  2.4224999999999994  3.9867 
C  -3.575400000000001  0.15829999999999878  4.5879 
H  -3.5172000000000008  -0.798  4.513800000000001 
H  -2.8450000000000006  0.4837999999999987  5.1178 
H  -4.405800000000001  0.3965999999999994  5.005199999999999 
