13
unq_CSD-BEWPOK-01-a
Br  0.6744000000000003  2.7803999999999993  7.267700000000001 
N  0.4570999999999996  -0.26039999999999974  1.9879999999999995 
C  0.5252999999999997  0.46609999999999996  3.1777999999999995 
C  -0.3471000000000002  1.5248999999999997  3.406699999999999 
C  -0.31069999999999975  2.2041999999999993  4.619199999999999 
C  0.5961999999999996  1.8257000000000003  5.6015999999999995 
C  1.4665999999999997  0.7668999999999997  5.3727 
C  1.4321000000000002  0.08760000000000012  4.1614 
H  -0.9673999999999996  1.7834999999999992  2.7342999999999993 
H  -0.9076000000000004  2.9278000000000004  4.775399999999999 
H  2.0869  0.5084  6.0451 
H  2.0271999999999997  -0.6359000000000004  4.004 
H  1.0922  -0.9790000000000001  2.1822999999999997 
