19
unq_CSD-BIJJUA-01-a
N  1.6239  0.7554000000000007  -0.5416999999999996 
C  2.7203  1.0402999999999993  0.3683000000000005 
H  3.4673000000000003  0.4272999999999998  0.15470000000000006 
H  2.4203  0.8309000000000006  1.2882000000000007 
C  2.0243  0.8388  -1.9345999999999997 
H  2.3442000000000003  1.7443999999999997  -2.1302999999999996 
H  1.2572999999999999  0.6322000000000001  -2.5088 
H  2.7434000000000003  0.19460000000000033  -2.1064 
C  3.2542000000000004  2.4684  0.3539000000000003 
C  5.0253  4.0292  0.8396000000000008 
H  5.909800000000001  4.190600000000001  1.1448 
C  2.4876  3.5393999999999997  -0.04529999999999923 
H  1.6116000000000001  3.3899999999999997  -0.38119999999999976 
C  4.544499999999999  2.7208999999999994  0.7886000000000006 
H  5.103999999999999  2.0004999999999997  1.0532000000000004 
C  4.249600000000001  5.077100000000001  0.45890000000000075 
H  4.5899  5.9639999999999995  0.48740000000000006 
C  2.9791000000000003  4.8418  0.03680000000000039 
H  2.4213  5.570900000000001  -0.20589999999999975 
