27
unq_CSD-OZUFIZ-01-a
Si  2.01  -2.6907000000000005  -0.48099999999999987 
Si  1.237400000000001  -2.4517000000000007  2.3823000000000008 
N  1.1744000000000003  -1.8213000000000008  0.7823000000000011 
C  2.464500000000001  -1.5134000000000007  -1.8643 
H  1.6757000000000009  -1.0587  -2.1708999999999996 
H  2.8500000000000014  -2.0082000000000004  -2.592599999999999 
H  3.0997000000000003  -0.8709000000000007  -1.5423999999999989 
C  0.9695999999999998  -4.0479  -1.206999999999999 
H  0.8048000000000002  -4.7171  -0.5381 
H  1.4331000000000014  -4.4443  -1.948599999999999 
H  0.13419999999999987  -3.6844  -1.5078999999999994 
C  0.7326000000000015  -4.2399000000000004  2.466799999999999 
H  -0.1647999999999996  -4.333900000000001  2.141 
H  0.7739000000000011  -4.540900000000001  3.3790000000000013 
H  1.3267000000000007  -4.7659  1.9283000000000001 
C  3.6346000000000007  -3.4645  0.05790000000000006 
H  4.232200000000001  -2.7757000000000005  0.3587000000000007 
H  4.029200000000001  -3.9293000000000005  -0.6818999999999988 
H  3.472100000000001  -4.0827  0.7746000000000013 
C  0.08619999999999983  -1.5564999999999998  3.513200000000001 
H  0.22300000000000075  -0.6098999999999997  3.4250000000000007 
H  0.2574000000000005  -1.8209999999999997  4.419599999999999 
H  -0.8201999999999998  -1.7706999999999997  3.283200000000001 
C  2.9144000000000005  -2.3218000000000005  3.1950000000000003 
H  3.1768  -1.4001000000000001  3.2409999999999997 
H  3.559100000000001  -2.8126000000000007  2.679500000000001 
H  2.8683000000000014  -2.6862000000000004  4.0824 
