19
unq_CSD-BOWTAL-01-a
C  -0.37449999999999983  3.0907  -0.8315999999999999 
H  -0.41579999999999995  2.6784  -1.6642000000000001 
C  -0.4607999999999999  4.4754  -0.7736000000000001 
C  -0.5697000000000001  5.2748  -2.0602 
C  -0.44930000000000003  5.092  0.4687999999999999 
H  -0.5270999999999999  6.015  0.5442999999999998 
C  -0.3186  4.2882  1.5997000000000003 
C  -0.19709999999999983  2.9099000000000004  1.4560000000000004 
H  -0.08650000000000002  2.3841  2.2149 
C  0.019200000000000106  6.1603  3.0953999999999997 
H  0.26149999999999984  6.793500000000001  2.4589999999999996 
C  -0.4681000000000002  5.165  5.046 
H  -0.6032000000000002  5.0388  5.9577 
N  -0.2974999999999999  4.8498  2.901 
N  -0.09850000000000003  6.3188  4.3976 
N  -0.23399999999999999  2.3196000000000003  0.25509999999999966 
N  -0.5882000000000001  4.2781  4.078 
O  -0.6375000000000002  4.621  -3.1082 
O  -0.5948000000000002  6.5226999999999995  -1.9580000000000002 
