18
unq_CSD-BUGZEJ-01-a
C  2.0336000000000007  -0.7614000000000001  3.3871 
C  2.8952999999999998  -0.35570000000000057  4.5064 
C  3.288800000000001  0.9161999999999999  4.6422 
H  2.9919000000000002  1.5703999999999994  4.0207 
C  4.1309  1.2906999999999993  5.6909 
H  4.383  2.201599999999999  5.7897 
C  4.6009  0.3543000000000003  6.5808 
C  4.1148  -0.8535000000000004  6.5124 
H  4.3624  -1.4948999999999995  7.1676 
C  3.2343  -1.2178000000000004  5.4877 
H  2.866500000000001  -2.093400000000001  5.4833 
C  5.543400000000001  0.8028999999999993  7.6686 
H  5.9499  1.6578999999999997  7.5882 
N  1.725600000000001  0.05339999999999989  2.3765 
N  0.9584000000000001  -0.7132000000000005  1.6083 
N  0.8150000000000004  -1.9177  2.1092 
N  1.4989999999999997  -1.9593000000000007  3.2448 
O  5.793300000000001  0.16959999999999908  8.5825 
