17
unq_CSD-CAQYUP-01-a
N  1.6507  1.0295  -0.7196999999999996 
N  2.1255  2.5598  -2.5317 
C  1.8477999999999999  1.8126000000000002  -1.5669999999999993 
C  1.5626000000000002  3.8959  -2.6207 
C  1.6981000000000002  4.5691  -3.7314999999999996 
H  2.2054  4.1997  -4.4186 
C  1.1052  5.8389  -3.9307999999999996 
H  1.1466000000000003  6.2875000000000005  -4.7443 
C  0.4500000000000002  6.3696  -2.8093999999999997 
C  0.37670000000000003  5.7228  -1.6791 
H  -0.06609999999999983  6.1174  -0.9634999999999998 
C  0.9487000000000001  4.4374  -1.5081999999999995 
H  0.9121000000000001  3.9867  -0.6964999999999995 
C  -0.1977  7.7793  -2.9732 
H  0.37250000000000005  8.4408  -2.5744999999999996 
H  -1.0537999999999998  7.7901  -2.5389 
H  -0.30969999999999986  7.9729  -3.9076999999999997 
