9
unq_CSD-CERPAT-01-a
N  1.2540000000000004  1.2076  1.2301 
N  1.6149000000000004  2.4122  0.6223 
N  2.9703  4.2892  0.9747 
H  2.7023  4.6731  0.2532 
H  3.5481000000000007  4.6782  1.4788 
S  2.9313000000000002  2.2855  2.7962 
S  1.6495000000000006  -0.4047  3.3698 
C  1.8373  0.9822  2.3744 
C  2.484  3.0775  1.3149 
