29
unq_CSD-CIBHAX-01-a
S  2.7114  -1.2569  -0.8001 
O  3.723  -0.6597  -1.6214000000000002 
O  1.5704  -1.8587  -1.4480000000000002 
N  2.0023  -0.14970000000000017  0.19239999999999968 
N  4.0362  0.6254  1.0607000000000002 
N  1.9225  1.517  1.7568999999999995 
N  5.1404  -5.5039  2.5176000000000003 
H  6.0421  -5.496700000000001  2.81 
H  4.5496  -6.0649  2.9998 
C  2.7084  0.6997  1.0467999999999997 
C  4.6622  1.5067999999999997  1.8683 
C  3.9555  2.3868000000000005  2.6606 
H  4.3974  2.9914  3.2441 
C  2.5863  2.3504  2.5707999999999998 
H  2.0829  2.9461999999999997  3.1125000000000003 
C  3.4344  -2.475  0.22529999999999983 
C  4.7826  -2.4269  0.5417000000000001 
H  5.317  -1.7086  0.2227999999999999 
C  5.351699999999999  -3.4133  1.3126000000000002 
H  6.2775  -3.371  1.5201999999999996 
C  4.577500000000001  -4.4856  1.7974 
C  3.2184  -4.5074000000000005  1.4860000000000002 
H  2.6738  -5.2126  1.8138 
C  2.6553  -3.5211  0.7088000000000001 
H  1.7293  -3.5545999999999998  0.5025 
C  6.159800000000001  1.5257  1.8252000000000002 
H  6.4617  2.2935000000000003  1.2974 
H  6.486000000000001  0.6981999999999999  1.4151000000000002 
H  6.5116  1.5985999999999998  2.7377999999999996 
