16
unq_CSD-CILBAB-01-a
S  3.578999999999999  0.9824  -1.2405999999999988 
O  4.169299999999998  -0.1726  1.0935000000000006 
N  2.0016999999999996  -0.0932  0.7260000000000009 
N  2.219099999999999  -0.7343  1.9572000000000003 
N  5.650599999999999  -2.2202  5.493600000000001 
C  3.171199999999999  0.2295  0.20690000000000097 
C  3.4856999999999996  -0.7568  2.123100000000001 
C  4.236299999999998  -1.2797  3.2604000000000006 
C  5.559800000000001  -0.8853  3.4864000000000015 
H  5.997099999999998  -0.3115  2.8991000000000007 
C  6.201700000000001  -1.3832  4.6213000000000015 
H  7.076299999999998  -1.1097  4.778700000000001 
C  4.3935999999999975  -2.5896  5.257300000000001 
H  3.992099999999999  -3.1746  5.8581 
C  3.6442999999999994  -2.1572  4.168700000000001 
H  2.7683999999999997  -2.4472  4.049700000000001 
