20
unq_CSD-MIFFIT-01-a
N  -0.07480000000000064  -0.34630000000000116  2.3221 
N  -1.4971000000000005  -3.2436000000000007  5.8766 
H  -1.5851000000000002  -2.539200000000001  6.3619 
O  -0.8641000000000005  -4.095300000000001  3.9114 
O  0.29249999999999954  -4.808800000000001  7.2636 
O  -1.2381000000000002  -6.322900000000001  7.75 
C  0.17459999999999987  0.6530999999999985  3.1781 
H  0.4196  1.4818999999999996  2.8342 
C  0.08420000000000005  0.5108999999999995  4.5466 
H  0.27199999999999935  1.2277999999999984  5.107 
C  -0.2893000000000008  -0.7099000000000011  5.076 
H  -0.3570000000000002  -0.8244000000000007  5.9959 
C  -0.5603000000000007  -1.7621000000000002  4.2116 
C  -0.42600000000000016  -1.5273000000000003  2.848 
H  -0.5889000000000006  -2.2334000000000005  2.2647 
C  -0.9714  -3.132600000000001  4.656 
C  -1.9225000000000003  -4.521700000000001  6.4011 
H  -2.2053000000000003  -5.0814  5.6609 
H  -2.6928000000000005  -4.381100000000001  6.973 
C  -0.8593000000000002  -5.2659  7.1936 
