9
unq_CSD-MIGCEL-01-a
C  -1.168  0.0  2.8351 
C  0.06329999999999991  0.0  3.6055999999999995 
H  0.8134000000000001  0.0  3.0066 
H  0.09560000000000013  0.784  4.1601 
N  -1.2852  0.0  1.6038999999999999 
N  -2.5534999999999997  0.0  1.2723999999999998 
N  -3.1753  0.0  2.4464 
N  -2.3449  0.0  3.4467000000000003 
H  0.09560000000000013  -0.784  4.1601 
