25
unq_CSD-MOGPOO-01-a
C  -0.9565000000000001  3.8374000000000006  -1.7549 
C  -0.014899999999999025  3.5792  -2.7561999999999998 
H  0.4319000000000006  2.7401999999999997  -2.7828999999999997 
C  0.2683  4.540100000000001  -3.7071 
H  0.9216999999999995  4.360799999999999  -4.3723 
C  -0.36960000000000015  5.7448  -3.711 
H  -0.16719999999999935  6.3866  -4.3792 
C  -1.3224999999999998  6.0281  -2.7314999999999996 
H  -1.7683  6.867100000000001  -2.7245999999999997 
C  -1.6138999999999992  5.0672  -1.7617999999999998 
H  -2.2683  5.2536000000000005  -1.0985999999999998 
C  -2.0974999999999993  3.0632  0.2842 
C  -3.4296999999999995  3.3465  0.02629999999999999 
H  -3.715  3.4143  -0.8771999999999999 
C  -4.337599999999999  3.529  1.0058000000000002 
H  -5.2363  3.7440999999999995  0.7814000000000001 
C  -3.9776999999999996  3.4107000000000003  2.3244000000000002 
H  -4.6208  3.5326000000000004  3.0133000000000005 
C  -2.6536999999999997  3.1059  2.6377 
H  -2.391  3.027  3.5471 
C  -1.7203  2.9231  1.6295000000000002 
H  -0.8225999999999996  2.7043  1.8498999999999999 
N  -0.05269999999999975  2.0256  -0.4708999999999999 
H  0.8582999999999998  2.4353999999999996  -0.3868999999999998 
N  -1.1578999999999997  2.885  -0.7426999999999999 
