41
unq_CSD-MOWHAH-01-a
N  -0.7491999999999999  1.9647000000000006  -0.7120999999999997 
C  -2.0275  2.3270999999999997  -0.28479999999999994 
C  -2.5853  3.1612  -1.1979999999999997 
C  -1.6642  3.3815999999999997  -2.2116 
C  -0.5396000000000001  2.6511000000000005  -1.91 
C  0.7676999999999999  2.6093  -2.5922 
C  1.9224  2.5577000000000005  -1.8143 
C  3.1827  2.5266  -2.3695999999999993 
C  3.3531  2.5401  -3.7410999999999994 
C  4.7154  2.4957000000000003  -4.356199999999999 
C  2.2135  2.6107000000000005  -4.5142 
C  0.9286  2.6525  -3.9924 
C  -0.23399999999999999  2.7401  -4.9426 
C  -2.5011  1.8594  1.028 
C  -3.8332999999999995  1.4865000000000004  1.3033000000000001 
C  -4.9111  1.5129000000000001  0.25370000000000004 
C  -4.1468  1.0779  2.5898000000000003 
C  -3.2394  1.0109000000000004  3.6322 
C  -3.6390000000000002  0.5465  5.0048 
C  -1.9296  1.3888000000000003  3.3641 
C  -1.5862  1.8265000000000002  2.0919 
H  -3.4497  3.5282  -1.1512999999999998 
H  -1.7864000000000002  3.9287  -2.9668 
H  1.8392  2.5429000000000004  -0.8772 
H  3.9366000000000003  2.4942  -1.8082999999999998 
H  5.3855  2.4691  -3.6560999999999995 
H  4.849  3.2852000000000006  -4.9032 
H  4.7942  1.7031  -4.910299999999999 
H  2.3124000000000002  2.6305000000000005  -5.4489 
H  -1.0618  2.7746000000000004  -4.4376 
H  -0.2389000000000001  1.9614000000000003  -5.5195 
H  -0.15060000000000007  3.5423999999999998  -5.482399999999999 
H  -5.7437  1.1960000000000002  0.6367 
H  -4.656  0.9401000000000002  -0.4858999999999998 
H  -5.027699999999999  2.4206000000000003  -0.06579999999999986 
H  -5.0359  0.8302  2.7657 
H  -2.8765  0.6041000000000003  5.6008000000000004 
H  -3.9455  -0.37309999999999977  4.9582 
H  -4.3548  1.1089000000000002  5.3411 
H  -1.2787  1.3487  4.0403 
H  -0.7041999999999999  2.1126000000000005  1.9375 
