20
unq_CSD-MUKGIJ-01-a
F  0.16170000000000018  -4.4199  -1.0573000000000001 
F  0.7298000000000004  -6.273  -2.7939 
F  1.9095  -9.231  0.7156 
F  1.2633000000000005  -7.3867  2.4760999999999997 
N  0.16179999999999994  -2.3147  0.9959 
N  0.14900000000000047  -5.0938  4.2935 
N  2.4707000000000003  -11.2346  -1.6238000000000001 
N  1.8309000000000002  -8.3756  -4.6444 
C  0.2559  -3.4023000000000003  1.3333000000000002 
C  0.29420000000000046  -4.9716000000000005  3.1572000000000005 
C  0.39359999999999973  -4.7605  1.7474999999999998 
C  0.7121  -5.7798  0.8132999999999999 
C  0.6228000000000002  -5.5905000000000005  -0.5854 
C  1.1465  -7.0847  1.1750999999999998 
C  0.9193000000000002  -6.5551  -1.4955 
C  1.4766999999999997  -8.0498  0.26729999999999987 
C  1.3716000000000004  -7.8512  -1.1399 
C  1.6717999999999997  -8.838000000000001  -2.1131 
C  1.7318000000000002  -8.5631  -3.518 
C  2.1045000000000003  -10.1556  -1.7907000000000002 
