19
unq_CSD-THEOEC10-01-b
C  5.4549  -0.367  -2.5783 
C  4.0411  0.8042000000000002  -4.1175999999999995 
C  2.7018  2.0584000000000002  -5.746700000000001 
C  1.8049999999999997  1.3034  -3.5304 
C  1.9169  0.6913  -2.2947 
C  3.1532  0.12840000000000007  -1.8799 
C  -0.07529999999999998  1.4072  -2.5769 
H  -0.9978  1.5920999999999998  -2.4244 
H  1.8266999999999998  2.6576999999999997  -5.8735 
H  1.7012999999999998  1.419  -6.2156 
H  5.4103  -1.0948  -1.9255 
H  5.8486  0.18030000000000013  -2.0253 
H  6.206  -0.20219999999999994  -3.3365 
N  4.1642  0.19490000000000007  -2.8719 
N  2.8489999999999998  1.3334000000000001  -4.4383 
N  0.6969  0.7814999999999999  -1.6846 
N  0.5668  1.7642000000000002  -3.7214 
O  4.999700000000001  0.8151999999999999  -4.8858 
O  3.4436  -0.4053  -0.7952999999999999 
