29
unq_CSD-UDARUP-01-a
S  0.42490000000000006  2.0933  -2.2978000000000005 
S  -1.8354  2.5042  -0.6071000000000009 
Cl  5.156899999999999  4.3191  1.120099999999999 
Cl  -6.3146  2.5019  -4.9473 
N  -0.6148999999999996  1.556  -1.1433000000000009 
O  0.8633999999999995  0.9305999999999992  -3.0058000000000007 
O  -0.17830000000000013  3.1835999999999993  -3.0146000000000006 
O  -2.4252000000000002  1.7733999999999996  0.48469999999999924 
O  -1.4092000000000002  3.8580999999999994  -0.3780000000000001 
C  1.8065000000000007  2.7245999999999997  -1.3956000000000008 
C  1.8754999999999997  4.0866  -1.1273000000000009 
H  1.2061000000000002  4.6725  -1.4596 
C  2.9262000000000006  4.588400000000001  -0.3717000000000006 
H  2.9959999999999996  5.519699999999999  -0.19810000000000016 
C  3.8733999999999993  3.7032999999999996  0.125 
C  3.819400000000001  2.3401000000000005  -0.14300000000000068 
H  4.484800000000001  1.7557  0.20099999999999962 
C  2.7798000000000007  1.8443999999999994  -0.9200000000000008 
H  2.7319000000000004  0.9187000000000003  -1.1246 
C  -3.0141  2.5199000000000007  -1.9187000000000003 
C  -3.5628  3.7249000000000008  -2.3281 
H  -3.2465  4.5432999999999995  -1.9642000000000008 
C  -4.5817  3.727099999999999  -3.2767000000000004 
H  -4.969799999999999  4.543399999999999  -3.5678000000000005 
C  -5.0191  2.5169000000000006  -3.7893000000000003 
C  -4.4567  1.3078999999999992  -3.4093000000000004 
H  -4.7584  0.492  -3.7930000000000006 
C  -3.4456999999999995  1.3103000000000007  -2.4591000000000003 
H  -3.0507999999999997  0.49240000000000084  -2.1795 
