28
unq_CSD-PUTPUP-01-a
N  1.6877000000000002  -0.6515  -0.21850000000000058 
C  2.741  -0.18930000000000025  0.6950000000000003 
C  3.3256  1.1810999999999998  0.3105000000000002 
H  3.7276  1.1252  -0.5582000000000003 
H  3.9905  1.4360999999999997  0.9547999999999996 
H  2.6244  1.8354  0.2972999999999999 
C  2.1124  -0.049599999999999866  2.0877 
H  1.4085  0.6023999999999998  2.0568 
H  2.7828  0.23219999999999974  2.7143000000000006 
H  1.7536  -0.8960000000000001  2.362099999999999 
C  3.8603000000000005  -1.2407000000000001  0.7947999999999995 
H  4.6072  -0.8646  1.2848999999999995 
H  3.5336  -2.0068  1.2923 
C  4.3403  -1.7017  -0.5655999999999999 
H  4.735  -0.9566000000000001  -1.0453999999999999 
H  5.0183  -2.3875  -0.4599000000000002 
C  3.1740000000000004  -2.2525  -1.3491999999999997 
H  2.8295000000000003  -3.036  -0.8928000000000003 
H  3.4842000000000004  -2.5319000000000003  -2.2238 
C  2.0353000000000003  -1.229  -1.5224000000000002 
C  2.4224  -0.1905000000000001  -2.5804 
H  3.1967  0.29269999999999996  -2.2855000000000003 
H  1.6935000000000002  0.42079999999999984  -2.7096 
H  2.6163  -0.6352000000000002  -3.4081 
C  0.8098000000000001  -1.9532  -2.0477000000000003 
H  0.5327000000000001  -2.6169000000000002  -1.4108 
H  1.0231000000000001  -2.3794  -2.8813 
H  0.09870000000000001  -1.3222  -2.1813000000000002 
