28
unq_CSD-PUXCIX-01-c
C  2.4253  0.5872  -1.6669999999999998 
C  1.3035  1.5676999999999999  -2.035 
H  0.5335000000000001  1.0697999999999999  -2.3801999999999985 
H  1.6259000000000001  2.1886  -2.7231999999999985 
H  1.0369000000000002  2.0722  -1.238199999999999 
C  2.8479  -0.18209999999999998  -2.9227999999999987 
H  3.5463  -0.8287  -2.689499999999999 
H  3.1936  0.4466  -3.589599999999999 
H  2.0735  -0.6557999999999999  -3.2921999999999993 
C  3.6118  1.3719999999999999  -1.1098999999999997 
H  3.3388999999999998  1.8413  -0.2944999999999993 
H  3.9133  2.0242  -1.7754999999999992 
H  4.344  0.7540000000000001  -0.9030999999999985 
C  3.7032  -0.7018  1.7951999999999995 
C  3.2481999999999998  0.4567  2.426700000000002 
H  2.5361000000000002  0.9487  2.0371000000000006 
C  3.8139000000000003  0.9036000000000001  3.6083000000000016 
H  3.4985  1.7046000000000001  4.011799999999999 
C  4.8304  0.19220000000000004  4.198200000000002 
H  5.2052000000000005  0.48850000000000005  5.019 
C  5.3059  -0.9548  3.5976000000000017 
H  6.0171  -1.4415999999999998  3.999900000000002 
C  4.7523  -1.3979  2.415799999999999 
H  5.0878  -2.1904  2.013299999999999 
N  1.8757000000000001  -0.3635  -0.645999999999999 
Si  2.9485  -1.4125  0.2353000000000005 
H  2.301  -2.5869999999999997  0.5323000000000011 
H  4.0506  -1.7879999999999998  -0.591899999999999 
