14
unq_CSD-QEJVOQ-01-a
Cl  0.6036999999999999  4.039  6.099099999999998 
C  -0.9043000000000028  4.1623  5.239099999999999 
C  -1.831500000000002  5.084099999999999  5.649800000000001 
C  -3.0299000000000014  5.1936  4.985000000000001 
C  -3.2849000000000004  4.4006  3.893299999999998 
C  -2.3394000000000013  3.4943  3.486700000000001 
C  -1.1258000000000017  3.3241  4.129099999999999 
N  -0.14050000000000296  2.4242999999999997  3.7651999999999983 
C  -0.2806000000000033  1.6984  2.7120999999999995 
N  -0.2616000000000014  0.9863  1.7890999999999995 
H  -1.6480000000000032  5.6334  6.377599999999999 
H  -3.664900000000003  5.805400000000001  5.2737 
H  -4.0893000000000015  4.4778  3.4337999999999997 
H  -2.5230000000000032  2.9671  2.7425999999999995 
