15
unq_CSD-QESDIE-01-a
N  -0.6120999999999999  1.4273  -1.5411000000000001 
C  -1.6959  2.8914  -3.3194999999999997 
C  -3.0957  3.0715000000000003  -3.2508999999999997 
C  -1.0861  2.0774  -2.358199999999999 
N  -4.228899999999999  3.1983000000000006  -3.1960999999999995 
O  0.3609  3.1817  -4.3271999999999995 
C  -0.9401000000000002  3.5441000000000003  -4.3462 
C  1.1360000000000001  3.0737000000000005  -6.6304 
H  1.7251000000000003  3.4940000000000007  -7.2604999999999995 
H  0.23439999999999994  3.1149000000000004  -6.957599999999999 
H  1.3937999999999997  2.1553000000000004  -6.517299999999999 
C  1.2231000000000005  3.7765000000000004  -5.325899999999999 
H  2.1400999999999994  3.7520000000000007  -5.009499999999999 
H  0.9748000000000001  4.7072  -5.447099999999999 
O  -1.3899999999999997  4.332800000000001  -5.1537 
