17
unq_CSD-QIBLIY-01-a
C  1.8485  0.43820000000000003  -2.3535000000000004 
H  1.5297999999999998  1.3628  -2.5085 
H  1.2849  -0.1813  -2.8809 
C  3.3097000000000003  0.3062  -2.7699 
H  3.4574999999999996  -0.5156  -3.3013000000000003 
H  3.6039000000000003  1.0904  -3.2985 
C  4.032  0.2384  -1.4479000000000002 
C  5.3927  0.2886  -1.1758000000000002 
H  6.0201  0.3771  -1.885 
C  5.8341  0.2078  0.14709999999999956 
H  6.7618  0.265  0.3436999999999997 
C  4.9087  0.0428  1.1767999999999996 
H  5.2161  -0.0272  2.0730999999999997 
C  3.5353000000000003  -0.022099999999999998  0.9167000000000001 
H  2.9111000000000002  -0.14509999999999998  1.6217000000000001 
C  3.1054000000000004  0.09809999999999999  -0.4058999999999999 
N  1.7666  0.09889999999999999  -0.8890000000000002 
