20
unq_CSD-QIFCUE-01-a
O  1.6207  -2.9684  -2.5554 
O  0.3987  -4.8733  0.8786999999999998 
O  1.6069  -5.8872  -1.7095000000000002 
O  3.1495  -4.7136  -0.5976000000000004 
O  -1.3218  -3.4436  1.0209999999999995 
N  -0.45310000000000006  -1.9115  -1.0698000000000003 
C  0.22449999999999998  -3.1548  -0.7053000000000003 
C  1.2747  -3.5726  -1.4860000000000002 
C  2.0956  -4.7852  -1.1921000000000002 
C  -0.35500000000000004  -3.7816  0.47699999999999987 
C  -0.1326  -5.5738  2.0038999999999993 
H  0.44439999999999996  -6.3071  2.2259999999999995 
H  -1.0072  -5.9056999999999995  1.7896999999999994 
H  -0.1936  -4.9757  2.7525999999999997 
C  2.4466  -7.0425  -1.5738000000000003 
H  2.0136000000000003  -7.8004  -1.9742000000000002 
H  2.6028  -7.2186  -0.6428000000000003 
H  3.2839  -6.8848  -2.0141 
H  -0.39349999999999996  -1.6063  -2.0340000000000003 
H  -1.279  -2.0774  -0.9301000000000004 
