7
unq_CSD-QOPTOE-01-b
O  0.5184000000000002  -1.6486  -2.3651 
N  0.8795000000000002  -1.5039000000000007  -1.1541999999999994 
C  1.835  -2.2854  -0.6821999999999999 
C  2.4522000000000004  -3.2812  -1.4994999999999994 
N  2.9368  -4.0718000000000005  -2.157 
C  2.2252  -2.1168000000000005  0.6778000000000013 
N  2.5446999999999997  -1.9744000000000002  1.7593000000000014 
