87
unq_CSD-JIRTAI-01-b
C  1.315100000000001  -1.5598  3.7802000000000007 
H  2.0144  -2.2156000000000002  3.7379999999999995 
H  1.2455000000000016  -1.2231000000000005  4.6766000000000005 
H  1.5176000000000016  -0.8367000000000004  3.1814999999999998 
C  -0.014099999999999113  -2.2041000000000004  3.3721999999999994 
H  -0.7352999999999996  -1.5929000000000002  3.6266999999999996 
C  -0.20599999999999952  -3.5091  4.154800000000002 
H  -0.17849999999999966  -3.3249000000000004  5.0958000000000006 
H  0.495000000000001  -4.1241  3.9289999999999985 
H  -1.0546999999999995  -3.8951000000000002  3.9289999999999985 
C  -0.13319999999999865  -2.4704000000000006  1.8780999999999999 
C  1.0025000000000013  -2.8103000000000007  1.1311 
H  1.834900000000001  -2.7953  1.5472000000000001 
C  0.9271000000000011  -3.1706000000000003  -0.21610000000000085 
C  -0.3295999999999992  -3.1951  -0.8165999999999993 
H  -0.3933  -3.4156000000000004  -1.717600000000001 
C  -1.4968999999999992  -2.8988000000000005  -0.10779999999999923 
C  -1.3916999999999993  -2.4942  1.2460000000000004 
C  -2.643699999999999  -2.0335  1.9261999999999997 
C  -3.442099999999999  -2.8571  2.7067999999999994 
H  -3.1454999999999993  -3.7090000000000005  2.9346999999999994 
C  -4.680699999999999  -2.418100000000001  3.1483000000000008 
H  -5.201099999999999  -2.9551000000000007  3.7009000000000007 
C  -5.133099999999999  -1.1692  2.755000000000001 
H  -5.973999999999999  -0.8868  3.0349000000000004 
C  -4.374999999999999  -0.3230000000000004  1.9562000000000008 
C  -3.0726999999999993  -0.7310000000000008  1.5784000000000002 
N  -2.2074999999999996  0.05940000000000012  0.8478999999999992 
C  -2.852099999999999  -3.1729000000000003  -0.7370000000000001 
H  -3.513799999999999  -2.6235  -0.26699999999999946 
C  -2.9524999999999997  -2.8483  -2.222899999999999 
H  -2.362499999999999  -3.4227000000000007  -2.7173999999999996 
H  -2.7036999999999995  -1.9317000000000002  -2.3687000000000005 
H  -3.8549999999999995  -2.9861000000000004  -2.5207999999999995 
C  -3.2078999999999995  -4.6439  -0.48489999999999966 
H  -3.2277999999999993  -4.8112  0.4602000000000004 
H  -2.548099999999999  -5.2072  -0.8957999999999995 
H  -4.070999999999999  -4.832700000000001  -0.8605999999999998 
C  2.1822  -3.6379  -0.9421999999999997 
H  2.9072000000000013  -3.0172000000000008  -0.7195999999999998 
C  2.0358  -3.6618000000000004  -2.4627 
H  1.6919000000000004  -2.8168000000000006  -2.7638 
H  1.4298000000000002  -4.3627  -2.7155000000000005 
H  2.8927000000000014  -3.8187000000000006  -2.8638999999999992 
C  2.5677000000000003  -5.020200000000001  -0.41389999999999993 
H  1.8484000000000016  -5.6366000000000005  -0.5730000000000004 
H  2.7391000000000005  -4.9663  0.5288000000000004 
H  3.357100000000001  -5.3265  -0.8660999999999994 
C  -4.973999999999999  0.9602000000000004  1.4505999999999997 
C  -8.2576  4.357899999999999  -0.5763999999999996 
H  -8.4156  3.4146  -0.6584000000000003 
H  -8.0414  4.7219999999999995  -1.4375 
H  -9.0474  4.7864  -0.2372999999999994 
C  -5.153899999999999  2.0519  2.3028999999999993 
C  -5.231699999999999  -0.11979999999999968  -0.8429000000000002 
H  -4.367299999999999  -0.5289000000000001  -0.6324000000000005 
C  -5.195099999999999  0.27120000000000033  -2.3169000000000004 
H  -4.546399999999999  0.966899999999999  -2.4483999999999995 
H  -6.0618  0.5876000000000001  -2.585699999999999 
H  -4.9544  -0.4931000000000001  -2.8453999999999997 
C  -6.034799999999999  2.2234  -0.30439999999999934 
H  -6.320699999999999  2.288599999999999  -1.1869999999999994 
C  -5.412299999999999  1.0536999999999992  0.10890000000000022 
C  -6.301799999999999  -1.1866000000000003  -0.6106999999999996 
H  -6.1533  -1.9245  -1.2073999999999998 
H  -7.168699999999999  -0.8104000000000005  -0.7751999999999999 
H  -6.253499999999999  -1.4951000000000008  0.2970000000000006 
C  -5.796999999999999  3.196999999999999  1.8399 
H  -5.924899999999999  3.9108  2.4228000000000005 
C  -6.248899999999999  3.3003  0.5424000000000007 
C  -7.165099999999999  4.583599999999999  0.32479999999999976 
H  -7.696  4.449999999999999  1.1390999999999991 
C  -4.381799999999999  2.2241999999999997  3.7361000000000004 
H  -3.707799999999999  1.5131999999999994  3.786200000000001 
C  -3.6503999999999994  3.552999999999999  3.968 
H  -4.293499999999999  4.247199999999999  4.133099999999999 
H  -3.1354999999999995  3.774799999999999  3.1889000000000003 
H  -3.0660999999999996  3.4695  4.724799999999998 
C  -5.398599999999999  1.959299999999999  4.850899999999999 
H  -5.777099999999999  1.0838  4.739599999999999 
H  -6.098099999999999  2.617799999999999  4.8100999999999985 
H  -4.9605999999999995  2.011799999999999  5.7042 
C  -6.603199999999999  5.776399999999999  0.7421000000000006 
H  -6.941099999999999  6.0031  1.6120999999999999 
H  -6.830099999999999  6.472999999999999  0.12069999999999936 
H  -5.648299999999999  5.683399999999999  0.7829999999999995 
H  -2.5497999999999994  0.8094999999999999  0.7050000000000001 
