41
unq_CSD-JIZRER-01-a
Si  1.8091000000000002  -0.6060000000000003  -2.8198 
Si  2.8164000000000007  -0.3610000000000002  0.040000000000000924 
N  1.6085  -0.3056000000000001  -1.1537999999999995 
C  1.9654  -2.4444  -3.181399999999999 
H  2.7  -2.8197  -2.6536999999999997 
H  2.1491  -2.5749000000000004  -4.1354999999999995 
H  1.1283  -2.8964000000000003  -2.9452999999999996 
C  3.3497000000000003  0.23939999999999984  -3.489299999999999 
H  3.3167  1.1955999999999998  -3.2738999999999994 
H  3.3896000000000006  0.12479999999999958  -4.4619 
H  4.1451  -0.16030000000000033  -3.0801999999999996 
C  0.34840000000000004  -0.007400000000000517  -3.8541999999999996 
C  -0.7905999999999999  -0.8063000000000002  -4.018 
H  -0.8479999999999999  -1.6265  -3.5436999999999994 
C  -1.8414  -0.43850000000000033  -4.853199999999999 
H  -2.602  -1.0010000000000003  -4.9384999999999994 
C  -1.7735999999999998  0.7549000000000001  -5.559899999999999 
H  -2.4819  1.0085999999999995  -6.1396 
C  -0.6663999999999999  1.5725999999999996  -5.4117 
H  -0.6184  2.3941  -5.8872 
C  0.37860000000000005  1.1991999999999994  -4.569599999999999 
H  1.1285  1.7752999999999997  -4.4772 
C  3.7794  -1.9603000000000002  0.1554000000000002 
H  3.1560000000000006  -2.7148000000000003  0.20980000000000132 
H  4.3434  -1.9453  0.9562000000000008 
H  4.3434  -2.0597000000000003  -0.6387999999999998 
C  4.041300000000001  1.0476999999999999  -0.0033999999999991815 
H  4.612500000000001  0.9588000000000001  -0.7954999999999997 
H  4.5956  1.0233999999999996  0.8039000000000005 
H  3.5584000000000007  1.8990999999999998  -0.04260000000000019 
C  1.7467  -0.1777000000000002  1.6046000000000014 
C  1.1863  1.0697999999999999  1.9543 
H  1.4235  1.8438999999999997  1.4566 
C  0.2843  1.1859000000000002  3.0231000000000012 
H  -0.09209999999999985  2.0321999999999996  3.234400000000001 
C  -0.057599999999999874  0.07559999999999967  3.7688000000000006 
H  -0.6622999999999999  0.15979999999999972  4.496400000000001 
C  0.4825999999999999  -1.1642000000000001  3.4533000000000005 
H  0.2564000000000002  -1.9265000000000003  3.9741999999999997 
C  1.3544000000000003  -1.2931000000000004  2.3747000000000007 
H  1.6934000000000002  -2.1525000000000003  2.1529000000000007 
