44
unq_CSD-KAGNOX-01-a
B  -1.1387999999999998  0.5083999999999995  2.9383999999999997 
H  -0.46130000000000004  0.9576999999999996  2.0612999999999992 
N  -1.2798999999999998  -1.3138  1.2334999999999994 
N  -1.7731999999999999  -0.8044000000000002  2.428099999999999 
N  -0.01869999999999994  -0.9940000000000002  4.6783 
N  -0.1509999999999998  0.2448999999999999  4.088099999999999 
N  -2.7878  2.1931999999999996  2.2342999999999993 
N  -2.1791  1.5674999999999994  3.3041 
C  -1.7387  -3.2439  -0.25459999999999994 
H  -0.7804  -3.2873  -0.45279999999999987 
H  -2.2076  -2.8094  -0.9981 
H  -2.0887  -4.1521  -0.13310000000000066 
C  -1.9524  -2.4588  0.9925999999999995 
C  -2.8518999999999997  -2.6968  2.0251 
H  -3.4395  -3.4383000000000004  2.109499999999999 
C  -2.7201999999999997  -1.6358000000000001  2.906599999999999 
C  -3.4490999999999996  -1.3642000000000003  4.1800999999999995 
H  -3.8879  -0.48870000000000013  4.125299999999999 
H  -2.8144  -1.366  4.9269 
H  -4.1247  -2.061  4.325699999999999 
C  1.4368000000000003  -2.0242000000000004  6.387599999999999 
H  1.0439000000000003  -2.8502  6.0328 
H  1.1589  -1.9037000000000002  7.3194 
H  2.4144  -2.083  6.342699999999999 
C  0.9670000000000001  -0.8513000000000002  5.567399999999999 
C  1.4685000000000001  0.4602999999999997  5.562999999999999 
H  2.1656  0.8130999999999999  6.103999999999999 
C  0.7409000000000003  1.1240999999999999  4.6126000000000005 
C  0.8410000000000002  2.5403999999999995  4.1363 
H  0.9275000000000002  2.552  3.1606000000000005 
H  1.6270000000000002  2.9639  4.539199999999999 
H  0.03440000000000021  3.03  4.399099999999999 
C  -4.4937  3.8991000000000002  1.8652999999999995 
H  -4.4838  3.5330999999999997  0.9553999999999991 
H  -4.1168  4.8035  1.8565000000000005 
H  -5.416  3.9324  2.1937999999999995 
C  -3.6711  3.0220999999999996  2.7675 
C  -3.667  2.9431999999999996  4.1669 
H  -4.2161  3.4293  4.7714 
C  -2.703  2.0143  4.4823 
C  -2.252  1.5906999999999996  5.858699999999999 
H  -2.0275999999999996  0.637  5.850999999999999 
H  -2.9741  1.7502  6.5024999999999995 
H  -1.4627999999999999  2.1118  6.1182 
