20
unq_CSD-KALBII-01-b
N  -1.1789999999999998  0.0  -1.7988999999999997 
C  -0.9988999999999999  0.0  -3.182500000000001 
C  -2.2961  0.0  -3.798000000000001 
C  -2.5031999999999996  0.0  -1.545300000000001 
O  -2.6464999999999996  0.0  -4.9606 
O  -3.2369999999999997  0.0  -2.785100000000001 
O  -3.1517999999999997  0.0  -0.5591000000000008 
C  0.052300000000000235  0.0  -3.9492000000000003 
C  2.3562000000000003  0.0  -4.9458 
C  3.7443  0.0  -4.901300000000001 
C  4.3715  0.0  -3.6645000000000003 
C  3.5778  0.0  -2.5285 
C  2.1916  0.0  -2.5700000000000003 
C  1.5624000000000002  0.0  -3.8084000000000007 
H  -0.1955  0.0  -4.8776 
H  1.9244000000000003  0.0  -5.801500000000001 
H  4.255400000000001  0.0  -5.7125 
H  5.3298  0.0  -3.606700000000001 
H  4.0095  0.0  -1.6714000000000002 
H  1.6786000000000003  0.0  -1.7588000000000008 
