34
unq_CSD-KEBTOD-01-a
P  -0.3216999999999999  1.2878000000000007  2.6750000000000003 
N  -0.4198000000000004  1.7157  1.0338999999999996 
C  0.9496000000000002  2.355600000000001  3.4693 
C  2.1114999999999995  1.7142000000000017  3.8806999999999996 
C  3.1671999999999993  2.4360000000000017  4.438600000000001 
C  3.0626999999999995  3.8024000000000004  4.591800000000001 
C  1.9037000000000006  4.459200000000001  4.2113 
C  0.8475000000000001  3.7341000000000015  3.6587 
C  -1.8642000000000003  1.9185000000000016  3.438 
C  -1.9127999999999998  2.3916000000000004  4.7524999999999995 
C  -3.1256000000000004  2.652100000000001  5.3765 
C  -4.3077000000000005  2.4368000000000016  4.6934000000000005 
C  -4.2761  1.9760000000000009  3.3856999999999995 
C  -3.0679  1.7189000000000014  2.7608 
C  -0.6299000000000001  3.1265  0.6108999999999996 
C  -1.6980000000000004  3.221  -0.4698000000000002 
C  0.6875  3.7492  0.17280000000000006 
H  2.1763999999999992  0.7890000000000015  3.7844 
H  3.9533000000000005  1.9809  4.7067 
H  3.7676  4.303100000000001  4.957000000000001 
H  1.831199999999999  5.375500000000001  4.3588000000000005 
H  0.053300000000000125  4.175600000000001  3.4144 
H  -1.1071  2.5203000000000007  5.211 
H  -3.1542000000000003  2.9778000000000002  6.275 
H  -5.1326  2.5924000000000014  5.1172 
H  -5.075200000000001  1.8381000000000007  2.9064 
H  -3.0502000000000002  1.3970000000000002  1.8645 
H  -0.9388000000000005  3.6174000000000017  1.384 
H  -1.8112000000000004  4.1364  -0.7605 
H  -1.4691  2.708500000000001  -1.2409000000000003 
H  -2.5234000000000005  2.9045000000000005  -0.1383000000000001 
H  0.5497999999999994  4.645900000000001  -0.15670000000000028 
H  1.3111999999999995  3.7872000000000003  0.9145999999999996 
H  1.0731000000000002  3.2094000000000005  -0.5396000000000001 
