17
unq_CSD-KEKWOP-01-b
N  0.3581000000000003  1.956999999999999  -0.4054000000000002 
N  -1.3247  2.379299999999999  -2.0543 
C  1.4151000000000007  2.6982999999999997  0.10789999999999988 
C  1.5084  3.9217999999999993  -0.49760000000000026 
H  2.1483000000000008  4.6  -0.31460000000000043 
C  -0.04049999999999976  4.872199999999999  -2.3894 
C  -1.155899999999999  4.5428999999999995  -3.1324 
H  -1.506499999999999  5.1488  -3.7736 
C  -1.7582000000000004  3.302199999999999  -2.9228 
H  -2.5319000000000003  3.097199999999999  -3.4335 
C  2.2673000000000005  2.1144999999999996  1.1933999999999996 
H  2.8735  1.447799999999999  0.8097000000000003 
H  1.6935000000000002  1.6881999999999984  1.8647 
H  2.7904  2.826599999999999  1.6158000000000001 
Cl  0.7528000000000006  6.4079  -2.6121 
C  0.45640000000000036  3.9743999999999993  -1.4578000000000002 
C  -0.2414000000000005  2.7349999999999994  -1.3454000000000002 
