11
unq_CSD-KEXXAN-01-a
N  -1.8432  -0.0134000000000003  1.2378999999999998 
N  -3.4204  0.6873999999999998  2.5841000000000003 
C  -2.5263999999999998  1.0293999999999999  1.7119999999999997 
C  -3.4743  -0.6640000000000001  2.5347 
H  -4.1229  -1.2004000000000001  2.9431000000000003 
C  -2.4257999999999997  -1.1228000000000002  1.7838000000000003 
H  -2.1548  -2.0071000000000003  1.6700999999999997 
C  -2.1906999999999996  2.5033999999999996  1.5909000000000004 
H  -1.5277999999999998  2.6244  0.9073000000000002 
H  -1.8493999999999997  2.8245999999999998  2.4285000000000005 
H  -2.9829999999999997  2.9938999999999996  1.3575 
