14
unq_CSD-KIGJEP-01-a
Cl  -4.7966  1.6228  7.5056 
Cl  -3.3129  3.4344  5.4051 
N  -1.8016  1.9797999999999998  3.3712 
N  -0.5452  1.1180999999999999  1.4944999999999995 
C  -1.163  1.4709999999999999  2.4083999999999994 
C  -2.3549  -0.25260000000000016  4.216499999999999 
C  -3.0185  -1.0150000000000001  5.1521 
C  -3.7813000000000003  -0.45610000000000006  6.146999999999999 
C  -3.8617000000000004  0.9292999999999998  6.2444 
C  -3.1806  1.7089999999999999  5.3221 
C  -2.4151  1.1525  4.293499999999999 
H  -1.7643  -0.7343000000000001  3.4345999999999997 
H  -2.9755000000000003  -2.1132  5.0787 
H  -4.3007  -1.0872000000000002  6.8831999999999995 
