15
unq_CSD-CIMTID-01-a
O  -1.1347  -0.8932000000000002  -5.3515 
O  -0.7505999999999999  0.9158  -6.5956 
N  0.050000000000000044  0.9680999999999997  -1.8891999999999998 
N  1.1109  4.2200999999999995  -3.1321 
H  1.3535000000000001  4.5927  -2.3728 
H  1.1887  4.6671000000000005  -3.8867 
C  0.4871000000000001  2.2368999999999994  -1.9530999999999998 
H  0.7235  2.6719  -1.1423999999999999 
C  0.6126  2.9467999999999988  -3.1407 
C  0.1935  2.3088999999999995  -4.3197 
H  0.23930000000000007  2.762299999999999  -5.1529 
C  -0.2845  1.0165999999999995  -4.255 
C  -0.3185  0.3617999999999997  -3.0254 
H  -0.6118000000000001  -0.5406000000000004  -2.9927 
C  -0.7530000000000001  0.28309999999999924  -5.4925 
