19
unq_CSD-PIJLIE-01-a
N  -0.8901000000000003  -0.7303999999999999  1.4603000000000002 
H  -1.0343  -0.059900000000000064  2.0351000000000004 
C  -1.3111000000000006  -2.0865  1.7945000000000002 
H  -1.3580000000000005  -2.5938999999999997  0.9333000000000001 
C  -0.28220000000000045  -2.8184  2.6763000000000003 
H  0.5996999999999995  -2.787  2.2504 
H  -0.5541  -3.7523  2.7952000000000004 
H  -0.2392000000000003  -2.3768000000000002  3.5497 
C  -2.7146  -2.0685000000000002  2.3627000000000002 
C  -3.7600000000000002  -1.5267  1.6166 
H  -3.5901  -1.1704999999999999  0.7526 
C  -5.0655  -1.5131999999999999  2.1324 
H  -5.7777  -1.1555  1.6148000000000002 
C  -5.3303  -2.0057  3.3765 
H  -6.2107  -1.9742  3.7321999999999997 
C  -4.319100000000001  -2.5460000000000003  4.1254 
H  -4.495900000000001  -2.9052  4.9866 
C  -3.0297  -2.5744  3.6237 
H  -2.3341000000000003  -2.9471  4.1516 
