27
unq_CSD-CRUPIM10-01-f
C  3.7600000000000007  0.02739999999999998  -2.4096 
C  4.2090000000000005  -1.1266  -1.636 
C  1.5584  -1.2137  -3.9723 
C  0.12770000000000015  -1.0931  -4.5018 
C  1.7213  1.6382999999999999  -3.6785 
C  2.6790000000000003  2.1216  -4.5671 
C  2.4664  3.3434999999999997  -5.2186 
C  1.3358  4.0404  -5.0142 
C  0.3741000000000001  3.575  -4.1654 
C  0.5370999999999999  2.3531000000000004  -3.4883 
H  4.2051  0.0262  -3.2385 
H  4.066  0.8018000000000001  -1.9751999999999998 
H  5.238300000000001  -1.3223  -1.6488 
H  3.907  -0.9762  -0.6268 
H  3.9865000000000004  -2.0263  -2.103 
H  2.1187000000000005  -1.4655  -4.7998 
H  1.3238999999999999  -1.9189  -3.494 
H  -0.34519999999999995  -1.1194  -3.6075000000000004 
H  -0.10670000000000002  -1.8831  -5.1405 
H  0.07210000000000005  -0.2722  -5.1973 
H  3.5891  1.6133  -4.5869 
H  3.2513000000000005  3.8804999999999996  -5.907 
H  1.2246  4.9544999999999995  -5.410200000000001 
H  -0.524  4.1431  -4.0192 
H  -0.1662999999999999  2.1144  -2.7843 
N  1.0934000000000001  -0.015600000000000058  -1.4812999999999998 
P  1.9741000000000002  0.08929999999999993  -2.7964 
