35
unq_CSD-CUVKOU-01-b
N  -1.0884  -0.6980000000000004  -1.259400000000003 
N  -4.476100000000001  -2.8271  -4.9350000000000005 
C  -1.8751999999999995  -1.1999  -2.1640000000000015 
C  -3.0688000000000013  -1.9385000000000003  -1.767400000000002 
C  -3.879100000000001  -2.43  -2.6986000000000008 
H  -4.638100000000001  -2.8931  -2.427500000000002 
C  -3.638300000000001  -2.2838000000000003  -4.094100000000001 
C  -2.4542  -1.5569000000000002  -4.488200000000001 
H  -2.2806999999999995  -1.4495  -5.394300000000001 
C  -1.5935000000000024  -1.0278  -3.6022000000000016 
C  -3.321600000000002  -2.1428000000000003  -0.29660000000000153 
H  -2.6114000000000015  -1.7393  0.20789999999999864 
H  -3.354300000000002  -3.0832  -0.10580000000000211 
H  -4.156600000000001  -1.7367000000000004  -0.05560000000000187 
C  -0.3437000000000019  -0.3125  -3.9937000000000005 
H  0.12009999999999721  -0.02150000000000052  -3.2056000000000004 
H  -0.5678000000000019  0.44930000000000003  -4.533400000000002 
H  0.2201999999999984  -0.9050000000000002  -4.495700000000001 
C  -4.4724  -2.6732  -6.264000000000001 
C  -5.066700000000001  -1.6009000000000002  -6.9178000000000015 
C  -5.053500000000001  -1.5388000000000002  -8.305800000000001 
H  -5.4521000000000015  -0.8209  -8.742600000000001 
C  -4.4460000000000015  -2.549  -9.041000000000002 
H  -4.437100000000001  -2.5089  -9.9699 
C  -3.8500000000000014  -3.6226000000000003  -8.3862 
H  -3.442400000000001  -4.2978000000000005  -8.878100000000002 
C  -3.863100000000001  -3.6834000000000002  -6.998200000000001 
C  -5.733500000000001  -0.5040000000000004  -6.149800000000001 
H  -5.6789000000000005  -0.6928000000000001  -5.208600000000001 
H  -6.654900000000001  -0.4458000000000002  -6.410800000000002 
H  -5.295000000000002  0.32899999999999974  -6.3355000000000015 
C  -3.294900000000002  -4.8644  -6.297900000000002 
H  -3.4003000000000014  -4.7557  -5.349100000000002 
H  -2.3613  -4.9433  -6.508700000000001 
H  -3.7551000000000005  -5.6573  -6.581500000000002 
