18
unq_CSD-YADMEV-01-a
S  2.1921  -5.4818  -0.7756 
O  3.359  -5.9612  -1.421 
N  0.9496  -5.8814  -1.6805 
O  1.8598  -5.8814  0.5547 
S  3.6452  -2.8898  -1.5196 
C  2.3582  -3.7285  -0.7332 
N  1.5004  -2.999  -0.1181 
N  1.7942  -1.6647  -0.2197 
C  2.8883  -1.4253  -0.9226 
N  3.3039  -0.1637  -1.1245 
C  4.4003  0.0194  -1.8824 
O  5.0657  -0.9106  -2.3945 
C  4.8009  1.4427  -2.1185 
H  1.1221  -5.8322  -2.5538 
H  0.2921  -5.7299  -1.4554 
H  4.3549  2.0904  -1.3785 
H  4.4473  1.72  -3.1002 
H  5.8757  1.542  -2.0815 
