22
unq_CSD-YAXFOS-01-a
N  -0.6666  1.0689  1.6401 
C  -0.1902  0.7276  2.9027 
O  0.4745  -0.2757  3.114 
C  -0.6017  1.7103  3.9232 
C  -1.2981  2.7975  3.6595 
C  -1.7511  3.0853  2.3156 
C  -2.4583  4.2089  1.9164 
C  -2.8624  5.2973  2.9153 
C  -2.8085  4.2952  0.5491 
C  -2.4912  3.3101  -0.2908 
C  -2.9132  3.3356  -1.7449 
N  -1.7816  2.2411  0.0524 
C  -1.4121  2.1342  1.3366 
H  -0.3537  1.55  4.8354 
H  -1.5045  3.406  4.373 
H  -3.3334  5.9945  2.4529 
H  -2.0813  5.6629  3.3362 
H  -3.4349  4.911  3.5818 
H  -3.282  5.0665  0.2276 
H  -3.415  4.1348  -1.9201 
H  -3.4623  2.5679  -1.9201 
H  -2.1394  3.3113  -2.312 
