17
unq_CSD-YEBFOC-01-a
S  1.8419  -2.2564  1.4207 
O  2.7136000000000005  -1.2389000000000001  1.9627 
O  2.4917  -3.496  1.0449000000000002 
N  1.0171  -1.6865  0.2325999999999997 
H  0.9982  -2.2009  -0.45619999999999994 
C  0.7331999999999999  -2.693  2.7541 
C  1.1331999999999998  -2.4925  4.0588 
H  1.9749  -2.1377  4.235799999999999 
C  0.29089999999999994  -2.815  5.102600000000001 
H  0.5563999999999998  -2.6801  5.983599999999999 
C  -0.9609000000000001  -3.3451  4.8154 
C  -1.3447  -3.6054999999999997  3.5076 
H  -2.1617  -4.011799999999999  3.3276000000000003 
C  -0.4912000000000001  -3.2506999999999997  2.4729 
H  -0.7470000000000001  -3.3901  1.5888999999999998 
C  -1.8738000000000001  -3.6648  5.8956 
N  -2.5940000000000003  -3.8947  6.727 
