45
unq_CSD-YEZSIH-01-b
N  -1.3489000000000004  1.4011999999999998  0.0343 
C  -1.8064999999999998  2.0737  -1.088000000000001 
H  -1.4614999999999991  1.7974999999999999  -1.9300000000000015 
C  -2.6948  3.0806999999999998  -1.091800000000001 
H  -2.9665  3.4427  -1.9281000000000006 
C  -3.2803000000000004  3.6656999999999997  0.1700999999999997 
H  -2.8075  4.5304  0.33399999999999963 
C  -2.9138  2.7428000000000003  1.3152999999999988 
H  -3.3516000000000004  2.8560000000000003  2.1495999999999977 
C  -2.0046  1.7837  1.1966 
H  -1.7799999999999994  1.3085  1.9876999999999985 
C  -4.8195  3.9934  0.10039999999999871 
C  -5.5901  2.669  0.07029999999999959 
C  -6.2785  2.156  1.1608 
H  -6.316  2.6621  1.9631999999999987 
C  -6.9094  0.9276000000000004  1.1118999999999986 
H  -7.3698  0.6051000000000002  1.878400000000001 
C  -6.8797  0.1676000000000002  -0.03330000000000055 
H  -7.313000000000001  -0.6781999999999999  -0.0691000000000006 
C  -6.2043  0.6617000000000002  -1.1295000000000002 
H  -6.1800999999999995  0.15560000000000018  -1.9318000000000008 
C  -5.5676  1.8729  -1.0785999999999998 
H  -5.0968  2.1818000000000004  -1.8452000000000002 
C  -5.0931  4.8581  -1.1577000000000002 
C  -4.2221  5.868599999999999  -1.519400000000001 
H  -3.4497  6.019499999999999  -0.9882000000000009 
C  -4.4378  6.6629000000000005  -2.625 
H  -3.8221999999999996  7.3543  -2.8397000000000006 
C  -5.5434  6.456999999999999  -3.4179000000000013 
H  -5.6767  6.981999999999999  -4.197700000000001 
C  -6.461  5.4826  -3.0732 
H  -7.2379999999999995  5.348699999999999  -3.6006 
C  -6.2329  4.7003  -1.9450000000000003 
H  -6.8731  4.0397  -1.7058 
C  -5.2462  4.8614999999999995  1.3057999999999996 
C  -6.588900000000001  5.2355  1.4357999999999986 
H  -7.2084  4.964499999999999  0.7690999999999999 
C  -7.04  5.987  2.5037000000000003 
H  -7.962  6.2065  2.5714999999999986 
C  -6.1579999999999995  6.415899999999999  3.4642999999999997 
H  -6.4651  6.9305  4.202599999999999 
C  -4.8277  6.094999999999999  3.349400000000001 
H  -4.2106  6.400399999999999  4.002999999999998 
C  -4.3829  5.3316  2.292799999999998 
H  -3.4583000000000004  5.1206  2.234399999999999 
