7
unq_CSD-PITKUA-01-a
N  -0.26339999999999986  3.0345000000000004  -0.013999999999999346 
O  -0.7128999999999999  4.1646  -0.0020999999999995467 
O  -3.0086  1.1554000000000002  0.7391000000000005 
O  0.9420999999999999  2.7641  -0.15249999999999986 
O  -2.9424  2.9791  -0.4574999999999996 
N  -2.3975  2.0705  0.15060000000000073 
N  -1.0168  1.8822  0.17740000000000045 
