12
unq_CSD-YOJVIC-01-b
N  1.9928  -0.9621000000000001  -0.41900000000000004 
C  2.8871  -1.5282  0.6684000000000001 
C  3.3457  -0.5707  1.5382000000000002 
C  4.0256  -2.2195  0.0990000000000002 
H  1.8463  -1.5719  -1.1302999999999999 
H  2.3727  -2.1282  1.1697000000000002 
H  3.888  -0.8767  2.2415999999999996 
H  3.8587  0.07689999999999997  1.0581 
H  2.6399  -0.06220000000000003  1.9289 
H  4.5876  -2.6844  0.7566000000000002 
H  3.6913  -2.9625000000000004  -0.43799999999999994 
H  4.4848  -1.7309  -0.44920000000000004 
