11
unq_CSD-PITZOI-01-b
N  1.8668999999999993  0.7005999999999997  0.9726999999999997 
O  2.2725999999999997  -1.1322999999999999  2.2942 
O  1.9518999999999993  2.8353  0.10229999999999961 
C  2.5843999999999996  -0.033800000000000274  1.8298000000000005 
C  3.8618999999999994  0.7031999999999998  2.220700000000001 
H  3.9082999999999997  0.8388999999999998  3.2003000000000004 
H  4.6641  0.20359999999999978  1.9255999999999993 
C  3.7489999999999997  2.0243  1.4960000000000004 
H  4.5005  2.1463  0.8640000000000008 
H  3.7396000000000003  2.7794  2.1357 
C  2.432299999999999  1.9242  0.7590000000000003 
