10
unq_CSD-FURXEW-01-a
O  4.332800000000001  -1.6495000000000002  2.8615 
O  3.2516  -3.5309000000000004  2.8358 
N  0.9436000000000001  -3.6949  1.6477 
H  1.3189000000000002  -4.4873  2.0769 
N  -0.25970000000000004  -3.8934  1.0554 
N  -0.6242000000000001  -2.7779000000000003  0.543 
N  0.3157000000000001  -1.8259  0.7687 
N  2.4044  -1.6911000000000003  1.8255 
N  3.3477  -2.3251  2.5233 
C  1.3045  -2.4149000000000003  1.47 
