57
unq_CSD-FUVNAN-01-a
Br  -3.9829  -5.6777  -0.4161999999999999 
Br  6.469800000000001  -0.4536000000000002  -7.8354 
Br  9.6516  3.1776999999999997  -2.3893000000000004 
Br  -0.2378  1.5219  7.093 
C  0.6987000000000001  -2.1208  -2.1081000000000003 
C  1.4399000000000002  -2.2276000000000002  -3.311 
H  1.2601  -2.8272000000000004  -4.026 
C  2.4608000000000003  -1.3210000000000002  -3.2620000000000005 
C  2.3355  -0.6562000000000001  -1.9757000000000007 
C  3.2083  0.7868999999999997  -0.3236000000000008 
C  4.2637  1.6733000000000002  0.1589999999999998 
C  3.8672999999999997  2.0465999999999998  1.4181999999999988 
H  4.330399999999999  2.6353999999999997  2.003 
C  2.6381  1.3872999999999998  1.6882000000000001 
C  -0.44320000000000004  -2.9262  -1.7016 
C  -1.4485999999999999  -3.2545  -2.6032 
H  -1.4123  -2.9191000000000003  -3.4903000000000004 
C  -2.5001  -4.063000000000001  -2.2238000000000007 
H  -3.1901  -4.2767  -2.843 
C  -2.5404  -4.556900000000001  -0.9354000000000005 
C  -1.5581  -4.2629  -0.024399999999999977 
H  -1.5927  -4.619  0.8563999999999989 
C  -0.5171000000000001  -3.4405  -0.40800000000000036 
H  0.15890000000000004  -3.22  0.22160000000000046 
C  3.4766999999999997  -1.086  -4.2991 
C  3.7937  -2.1243000000000003  -5.1737 
H  3.3862  -2.9742  -5.0559 
C  4.691000000000001  -1.9405000000000001  -6.210800000000001 
H  4.920300000000001  -2.6641000000000004  -6.7841000000000005 
C  5.2386  -0.7184000000000001  -6.3943 
C  4.9518  0.3496999999999999  -5.5635 
H  5.348000000000001  1.1997  -5.711500000000001 
C  4.0738  0.15449999999999964  -4.5128 
H  3.8745999999999996  0.8757999999999999  -3.9281 
C  5.5238  2.0196999999999994  -0.49659999999999993 
C  6.036900000000001  1.3190999999999997  -1.5900000000000007 
H  5.543200000000001  0.5954999999999999  -1.9549000000000003 
C  7.2562  1.6636999999999995  -2.1508000000000003 
H  7.5908  1.1789999999999998  -2.8972000000000007 
C  7.9794  2.702  -1.6286000000000005 
C  7.515000000000001  3.4094999999999995  -0.5404 
H  8.021  4.1285  -0.17970000000000041 
C  6.3034  3.0603  0.016199999999999548 
H  5.989800000000001  3.5404  0.7729999999999997 
C  1.8820000000000001  1.4408999999999996  2.9368999999999996 
C  1.1518000000000002  0.3381999999999996  3.391399999999999 
H  1.1065999999999998  -0.4451000000000003  2.8545999999999996 
C  0.49529999999999985  0.3634999999999997  4.6089 
H  0.0034999999999998366  -0.3900000000000001  4.9101 
C  0.5718999999999999  1.5097999999999998  5.376099999999999 
C  1.2570999999999999  2.6330999999999998  4.9498 
H  1.2722000000000002  3.4233000000000002  5.478199999999999 
C  1.9163999999999999  2.5847999999999995  3.7437000000000005 
H  2.4049  3.3452  3.450799999999999 
N  1.2193999999999998  -1.1758000000000002  -1.3086000000000002 
N  2.2441999999999998  0.6283999999999996  0.6551999999999989 
N  3.2112000000000003  0.23119999999999985  -1.5296000000000003 
