19
unq_CSD-FUVPIX-01-b
N  0.5957999999999999  0.8125  -1.6709999999999998 
C  1.6422  0.4407000000000001  -2.4823999999999997 
H  2.2746000000000004  -0.23709999999999998  -2.2737999999999996 
C  -0.0605  1.8101999999999998  -2.3272999999999997 
H  -0.8287  2.2596999999999996  -1.9952999999999999 
C  1.6456000000000002  1.1784999999999999  -3.6233999999999997 
H  2.2651000000000003  1.107  -4.3403 
C  0.5433000000000001  2.0805999999999996  -3.542 
C  0.0696000000000001  3.0423  -4.5388 
C  0.37450000000000006  2.9497  -5.8980999999999995 
C  -0.7824  4.1087  -4.2158999999999995 
C  -0.15270000000000006  3.8017000000000003  -6.8527000000000005 
C  -1.3152  4.9672  -5.1521 
C  -0.9994999999999999  4.8101  -6.4784 
F  1.1764  1.9656999999999998  -6.3431999999999995 
F  -1.1177  4.3356  -2.9314999999999998 
F  0.12940000000000018  3.6059  -8.1537 
F  -2.133  5.9577  -4.7724 
F  -1.5361  5.6344  -7.4009 
