27
unq_CSD-GADTEK-01-a
N  0.0054000000000002935  1.7781000000000002  -0.6844000000000001 
P  1.2361  2.7825  -0.9224000000000001 
C  2.0518000000000005  2.4762  -2.511 
C  2.0585999999999998  3.4403  -3.5058000000000002 
C  2.6641  3.1815  -4.7273000000000005 
C  3.2716  1.9563000000000001  -4.9494 
C  3.2845999999999997  0.9958  -3.9545000000000003 
C  2.6703000000000006  1.2532999999999999  -2.7353 
C  0.6349  4.477600000000001  -1.0085000000000002 
C  1.3564000000000003  5.5588999999999995  -0.4963000000000002 
C  0.8409  6.848800000000001  -0.6187 
C  -0.35919999999999974  7.0539000000000005  -1.2759 
C  -1.0616999999999999  5.995800000000001  -1.8084000000000002 
C  -0.5791999999999997  4.7021999999999995  -1.6611000000000002 
C  2.5020000000000002  2.7239  0.3511999999999995 
H  1.5925000000000002  4.3971  -3.3358 
H  2.6565  3.9272000000000005  -5.5 
H  3.7391  1.7488000000000001  -5.8966 
H  3.7666  0.05370000000000008  -4.1245 
H  2.6619000000000006  0.4979  -1.9625 
H  2.3015000000000003  5.399000000000001  -0.009100000000000108 
H  1.3860000000000001  7.678700000000001  -0.20399999999999974 
H  -0.7480999999999998  8.0558  -1.3688000000000002 
H  -1.9834999999999998  6.172700000000001  -2.3433 
H  -1.1443999999999999  3.8613000000000004  -2.0532 
H  3.2871  1.7353999999999998  0.40329999999999977 
H  2.076  2.9875  1.3075 
