14
unq_CSD-GATZOR-01-a
O  -2.0718  -1.3622999999999994  -1.1227 
O  -2.8012  -3.3873999999999995  -1.5724 
H  -2.5431  -4.155399999999998  -1.4484 
O  -2.0060000000000002  -5.683199999999999  -1.201 
O  -0.26760000000000006  -6.7421999999999995  -0.2784 
N  0.274  -2.2436999999999987  -0.05920000000000014 
N  0.9715999999999998  -4.294699999999999  0.2549999999999999 
H  1.4742  -4.948599999999999  0.4979 
C  1.2505  -2.9992  0.3988999999999998 
H  2.0354  -2.6701999999999995  0.7755999999999998 
C  -0.6797000000000001  -3.1202999999999985  -0.5324 
C  -1.9228  -2.5546999999999986  -1.1034 
C  -0.2502000000000001  -4.403499999999999  -0.3454999999999999 
C  -0.8599000000000001  -5.7212  -0.6215999999999999 
