17
unq_CSD-UGIZOC-01-a
C  -0.09999999999999964  1.9367999999999999  2.4380999999999986 
H  0.8353000000000002  2.0321  2.4301999999999992 
C  -2.1458999999999993  2.1829  2.9389000000000003 
C  -3.427699999999999  2.5278  3.418199999999999 
C  -4.271999999999999  1.0383000000000004  1.8664000000000005 
H  -5.046499999999999  0.6452  1.5047999999999995 
C  -2.069399999999999  1.2552000000000003  1.9106000000000005 
C  -4.9841999999999995  3.8269  4.768599999999999 
H  -4.9323999999999995  4.5064  5.459399999999999 
H  -5.474899999999999  3.0621  5.104800000000001 
H  -5.440199999999999  4.188400000000001  3.992799999999999 
N  -0.745099999999999  1.0892  1.5970999999999993 
N  -0.8732999999999986  2.6262  3.2743 
N  -3.645699999999999  3.4156000000000004  4.395299999999999 
H  -2.965299999999999  3.7560000000000002  4.8185 
N  -4.494699999999999  1.9177999999999997  2.8603999999999985 
N  -3.138699999999999  0.6427  1.3177000000000003 
