22
unq_CSD-PIXLAK-01-a
N  -3.2735  3.518  -1.3502 
C  -4.1076999999999995  4.3893  -0.4911 
H  -3.5393  4.9737  0.0176 
H  -4.6255  3.8466  0.1068 
H  -4.6949  4.9112  -1.04 
N  -2.2538  2.553  0.5062 
H  -2.7112  3.0719  1.0174 
H  -1.7016  1.9895  0.8478 
N  -0.7248999999999999  0.8907  -1.6328 
C  -3.3968999999999996  3.7024  -2.6715 
H  -4.009399999999999  4.3432  -2.9516 
C  -1.8937999999999997  2.1545  -3.091 
N  -2.7455  3.069  -3.5997 
C  -2.3981  2.6229  -0.8026 
C  -1.6953999999999998  1.875  -1.7521 
N  -1.0267  1.3531  -3.7731 
C  -0.36919999999999975  0.6275  -2.8838 
H  0.27559999999999985  -0.003  -3.1124 
C  -0.8872  1.3055  -5.2602 
H  -0.25329999999999986  0.6245  -5.5001 
H  -0.5797999999999996  2.156  -5.5805 
H  -1.7384999999999997  1.1018  -5.6546 
