9
unq_CSD-UZUHIJ-01-a
N  0.7345000000000002  1.0216000000000003  1.5592000000000006 
C  0.3216000000000001  0.6034999999999995  2.8230000000000004 
F  -0.7387999999999999  -0.043700000000000294  2.8002000000000002 
F  1.3272  -0.2273000000000005  3.3789999999999996 
F  0.11690000000000023  1.5950999999999995  3.6372 
C  1.7695000000000003  1.8522999999999996  1.4329 
F  2.9407  1.4999000000000002  2.0052000000000003 
F  1.5889000000000002  3.091799999999999  1.9491999999999994 
F  2.0883  2.0492999999999997  0.10960000000000036 
