36
unq_CSD-VABWUQ-01-a
N  0.24230000000000018  -1.9289999999999994  0.7639999999999998 
C  0.3759999999999999  -3.0093999999999994  1.1218 
B  0.5303999999999998  -4.4939  1.7384 
C  3.1531  -4.2299  1.5065000000000004 
C  4.455500000000001  -4.326899999999999  1.9810000000000003 
C  4.6907  -4.7741  3.2771000000000003 
C  3.6235000000000004  -5.1217  4.0969 
C  2.3211  -5.021999999999999  3.6223000000000005 
C  2.0859  -4.5774  2.3262000000000005 
C  -1.177  -5.7924999999999995  3.2592000000000003 
C  -2.0404  -5.8895  4.344900000000001 
C  -2.3028  -4.7687  5.1251 
C  -1.7018  -3.5535999999999994  4.8231 
C  -0.8384  -3.4566999999999997  3.7373 
C  -0.5760000000000001  -4.5747  2.9554000000000005 
C  1.0999000000000003  -6.6331  0.2823000000000002 
C  0.7532999999999999  -7.6219  -0.6290999999999998 
C  -0.4598  -7.5518  -1.3033 
C  -1.3274  -6.492999999999999  -1.0678 
C  -0.9807999999999999  -5.5015  -0.1564000000000001 
C  0.23220000000000018  -5.5716  0.5196000000000001 
H  2.9924000000000004  -3.9254  0.6202000000000001 
H  5.1853  -4.089799999999999  1.4202 
H  5.581299999999999  -4.8415  3.6007000000000002 
H  3.7843000000000004  -5.4261  4.981300000000001 
H  1.5913999999999997  -5.2591  4.1814 
H  -0.9975999999999998  -6.555  2.7253000000000003 
H  -2.4518  -6.7193  4.5517 
H  -2.8922999999999996  -4.8361  5.867600000000001 
H  -1.8812  -2.7884999999999995  5.357000000000001 
H  -0.42700000000000005  -2.6240999999999994  3.5306 
H  1.9295000000000004  -6.6789  0.7425000000000002 
H  1.3458  -8.346599999999999  -0.7908999999999997 
H  -0.6966999999999999  -8.230799999999999  -1.9269999999999998 
H  -2.1557  -6.4445  -1.5279999999999998 
H  -1.5734  -4.7768  0.007200000000000095 
