11
unq_CSD-VEGDER-01-a
O  5.154400000000001  3.5645  -0.21909999999999963 
N  1.8024  1.1401  -0.026699999999999946 
C  2.5637  1.2384  -1.1337999999999997 
H  2.3122000000000003  0.7214999999999999  -1.8904999999999998 
C  3.6780000000000004  2.0338000000000003  -1.2426999999999997 
H  4.1584  2.0557000000000003  -2.0622999999999996 
C  4.122300000000001  2.8201  -0.15329999999999977 
C  3.3028  2.7054  1.0136000000000003 
H  3.5248000000000004  3.1987  1.7957999999999998 
C  2.2072000000000003  1.8991000000000002  1.0126000000000004 
H  1.6868000000000003  1.8664  1.8075999999999999 
