37
unq_CSD-VUFZAY-01-b
C  -2.2535  -1.9629999999999992  1.3983000000000008 
C  -3.5244  -2.5508999999999986  1.3572000000000006 
H  -4.2187  -2.1517999999999997  0.8464999999999998 
C  -3.7691  -3.7326999999999995  2.0723000000000003 
H  -4.635  -4.1240999999999985  2.043100000000001 
C  -2.784  -4.340499999999999  2.8149999999999995 
H  -2.9669  -5.1418  3.2918000000000003 
C  -1.5250999999999997  -3.772599999999999  2.8613 
H  -0.8391000000000002  -4.183999999999999  3.375 
C  -1.2588999999999997  -2.6060999999999996  2.159700000000001 
H  -0.3862999999999994  -2.2330999999999985  2.194000000000001 
C  -3.7899  0.6525000000000016  0.2625000000000002 
C  -4.452999999999999  1.5028000000000006  -0.6448 
H  -4.2839  1.4261000000000017  -1.5753000000000004 
C  -5.3487  2.4498999999999995  -0.18339999999999979 
H  -5.7737  3.030000000000001  -0.8026999999999997 
C  -5.6423  2.5665000000000013  1.1776999999999997 
H  -6.2397  3.237300000000001  1.4890000000000008 
C  -5.0389  1.6824000000000012  2.0649999999999995 
H  -5.255199999999999  1.7254000000000005  2.99 
C  -4.1162  0.7292000000000005  1.6113 
H  -3.7119999999999997  0.13220000000000098  2.2303999999999995 
C  -3.1292999999999997  -1.0558999999999994  -1.4215999999999998 
H  -4.1155  -1.1095999999999986  -1.4817 
H  -2.7876999999999996  -1.9736999999999991  -1.2762000000000002 
C  -2.5885  -0.5431999999999988  -2.7556000000000003 
H  -1.6002999999999998  -0.5139999999999993  -2.7173 
H  -2.9175  0.3777000000000008  -2.9097999999999997 
C  -3.0279999999999996  -1.4441999999999986  -3.9264 
H  -2.6209999999999996  -2.3389999999999986  -3.8125 
H  -4.010999999999999  -1.5531999999999986  -3.8957 
C  -2.6428  -0.9038999999999984  -5.2562 
H  -2.9368999999999996  -1.522499999999999  -5.9559999999999995 
H  -1.6696999999999997  -0.8026  -5.2978000000000005 
H  -3.0688  -0.032099999999999795  -5.3915 
N  -1.8710999999999998  -0.7885999999999989  0.7309999999999999 
N  -2.7695  -0.21859999999999857  -0.2362000000000002 
