18
unq_CSD-GOQPUZ-01-a
O  9.0142  -0.2307999999999999  -1.983 
N  2.2275  -0.14259999999999984  -0.40370000000000017 
N  4.2684999999999995  -1.0447  0.05069999999999997 
N  4.336799999999999  -0.18080000000000007  -0.9988000000000001 
N  2.9031000000000002  1.2361999999999997  -2.2851 
N  3.9452000000000003  1.5790000000000002  -3.0081 
C  2.9867  -0.9661  0.35619999999999985 
H  2.6223  -1.453  1.06 
C  3.1145  0.3546  -1.2751000000000001 
C  5.176699999999999  1.0804  -2.7484 
C  5.4609  0.1604000000000001  -1.7078000000000002 
C  6.722499999999999  -0.32379999999999987  -1.4372000000000003 
H  6.8614999999999995  -0.9321999999999999  -0.7474000000000003 
C  7.7958  0.12329999999999997  -2.2276000000000002 
C  7.5142999999999995  1.0324  -3.3009000000000004 
H  8.2152  1.3115  -3.8452 
C  6.2657  1.5013999999999998  -3.553 
H  6.1244  2.0976000000000004  -4.2523 
