26
unq_CSD-HAVTOP-01-a
N  -1.7643000000000004  -0.12910000000000021  -1.3373999999999988 
C  -2.754  -0.13860000000000028  -2.1167 
C  -2.717  0.6833999999999998  -3.378 
C  -4.0237  -0.9857  -1.8671999999999986 
C  -2.1582000000000003  0.15850000000000009  -4.543099999999999 
H  -1.8321000000000005  -0.7128000000000001  -4.543099999999999 
C  -5.277  -0.09970000000000034  -1.9162999999999997 
H  -5.1958  0.6056999999999997  -1.2677999999999994 
H  -5.3673  0.2791999999999999  -2.7943 
H  -6.0522  -0.6297999999999999  -1.712299999999999 
C  -2.0806  0.9142999999999999  -5.695399999999999 
H  -1.7073  0.5489999999999995  -6.463099999999999 
C  -4.1152  -2.0491  -2.9696 
H  -4.8728  -2.616  -2.805299999999999 
H  -4.2170000000000005  -1.6187  -3.8217 
H  -3.314  -2.5782000000000003  -2.969199999999999 
C  -2.5528  2.1982  -5.708499999999999 
H  -2.5055  2.7062  -6.4849 
C  -3.1819  1.9818999999999996  -3.4121999999999986 
H  -3.557  2.3567  -2.6486 
C  -3.934  -1.6554000000000002  -0.5045999999999999 
H  -3.8758  -0.9836  0.17850000000000144 
H  -4.7158  -2.1929  -0.3606999999999996 
H  -3.1522  -2.2118  -0.46999999999999886 
C  -3.097  2.7293000000000003  -4.568599999999999 
H  -3.4122000000000003  3.6048  -4.5722 
