23
unq_CSD-HAYCER-01-a
O  10.8272  -0.10939999999999994  1.6485999999999983 
O  8.9706  -0.5760999999999998  2.7607999999999997 
N  2.2580999999999998  0.09780000000000033  -0.16310000000000002 
C  9.5818  -0.2286999999999999  1.7253999999999987 
C  8.7448  0.0697000000000001  0.49959999999999916 
C  7.3628  0.0050000000000003375  0.5846 
H  6.963  -0.22799999999999976  1.4146999999999998 
C  6.5390999999999995  0.27180000000000026  -0.5149000000000008 
C  7.1616  0.6162000000000001  -1.7185000000000006 
H  6.6314  0.8039000000000001  -2.4837000000000007 
C  8.53  0.6867000000000001  -1.8106000000000009 
H  8.9331  0.9254000000000002  -2.637200000000001 
C  9.3326  0.4134000000000002  -0.7063000000000006 
H  10.2799  0.4623000000000004  -0.7802000000000007 
C  5.0675  0.20130000000000026  -0.3965000000000014 
C  4.4144000000000005  0.4408000000000003  0.8126999999999995 
H  4.9196  0.6493000000000002  1.588799999999999 
C  3.05  0.37600000000000033  0.8866999999999994 
H  2.6386000000000003  0.5378000000000003  1.7280999999999995 
C  2.8756000000000004  -0.13239999999999963  -1.325000000000001 
H  2.3415  -0.33589999999999987  -2.0840000000000005 
C  4.2433  -0.08989999999999965  -1.484 
H  4.6264  -0.25959999999999983  -2.3367000000000004 
