15
unq_CSD-ZESXOM-01-a
N  -0.16159999999999997  2.1676  2.1104000000000003 
N  0.24869999999999948  1.8860000000000001  0.8780999999999999 
N  0.9024000000000001  2.8861  0.3782000000000001 
N  0.9547000000000008  3.8722000000000003  1.2955 
N  -1.0796999999999999  4.438  5.6434 
C  0.2961000000000009  3.4000000000000004  2.3289999999999997 
C  0.11529999999999951  4.1498  3.5764000000000005 
C  -0.8540000000000001  3.7786  4.518 
H  -1.3685  3.0229  4.3425 
C  -0.39450000000000074  5.523999999999999  5.8340000000000005 
H  -0.6028000000000002  6.045999999999999  6.5757 
C  0.6400000000000006  5.960800000000001  4.9982 
H  1.1661000000000001  6.6912  5.2295 
C  0.8531999999999993  5.285  3.8379000000000003 
H  1.4870999999999999  5.5847999999999995  3.2276 
