36
unq_CSD-ZIGLAF-01-a
Si  2.0862999999999996  1.9214000000000002  -2.1129999999999995 
Cl  5.3622  -4.2257  -0.5582999999999991 
N  1.3754999999999988  3.242800000000001  -1.1548999999999996 
N  1.8979  0.578100000000001  -1.0687999999999995 
C  2.756499999999999  -0.5145  -1.0040999999999993 
C  1.2287999999999997  1.687100000000001  -3.748099999999999 
H  1.6388999999999996  0.9367000000000001  -4.228299999999999 
H  1.3169999999999984  2.5051000000000005  -4.282399999999999 
H  0.27919999999999945  1.4991000000000003  -3.594999999999999 
C  0.3597999999999999  4.1671  -1.4634999999999998 
C  1.3506  4.8277  0.44870000000000054 
H  1.5639999999999983  5.338900000000001  1.2207000000000008 
C  4.2341999999999995  -2.202  -1.9672 
H  4.705499999999999  -2.5470999999999995  -2.718399999999999 
C  3.8667999999999996  2.346300000000001  -2.4801 
H  4.062299999999999  3.2483000000000004  -2.1506999999999987 
H  4.0184999999999995  2.3133999999999997  -3.4482 
H  4.4548999999999985  1.6999000000000013  -2.034799999999999 
C  1.9710999999999999  3.684100000000001  0.04750000000000121 
C  4.3378  -2.8247  -0.7410999999999994 
C  0.3276999999999983  5.121700000000001  -0.4902999999999995 
H  -0.27590000000000003  5.855700000000001  -0.44759999999999955 
C  3.4398999999999997  -1.0755  -2.1046999999999993 
H  3.3534999999999986  -0.6700999999999997  -2.9596999999999998 
C  2.9217999999999993  -1.1612999999999998  0.23210000000000086 
H  2.5058999999999987  -0.7960999999999991  1.0025000000000013 
C  -0.547600000000001  4.048  -2.6499999999999986 
H  -1.2535000000000007  4.7254000000000005  -2.5908999999999995 
H  -0.9535  3.1552000000000007  -2.6624 
H  -0.031000000000000583  4.1831  -3.471399999999999 
C  3.6808999999999994  -2.3206999999999995  0.3614000000000015 
H  3.7432999999999996  -2.7626  1.1994000000000007 
C  3.0801999999999996  2.9543  0.7418000000000013 
H  3.2645999999999997  3.385200000000001  1.6030000000000015 
H  3.884499999999999  2.9779999999999998  0.18380000000000152 
H  2.8138999999999985  2.0249000000000006  0.894400000000001 
