12
unq_CSD-DIRTEE-01-a
C  0.8106  -3.9345000000000008  -0.5678000000000001 
C  0.3979000000000008  -5.369800000000001  -0.7665999999999995 
H  0.5883000000000012  -5.634500000000001  -1.7005999999999997 
H  -0.5790999999999995  -5.447700000000001  -0.6227 
C  1.1130000000000004  -6.327300000000001  0.1748000000000003 
H  0.8038999999999996  -7.2426  0.007699999999999818 
H  0.9180000000000001  -6.079700000000001  1.1027000000000005 
H  2.0797999999999996  -6.275900000000001  0.01869999999999994 
N  -0.056199999999999584  -2.9399000000000015  -0.3764000000000003 
N  0.7388000000000003  -1.8682000000000016  -0.2909999999999995 
N  2.0079000000000002  -2.189300000000001  -0.40200000000000014 
N  2.0774  -3.514100000000001  -0.5762999999999998 
