16
unq_CSD-DIRTOO-01-a
C  2.0021000000000004  -0.5837000000000001  -3.4286 
C  2.7795000000000005  -0.09909999999999997  -4.578 
C  3.2248  -0.9782000000000002  -5.5431 
H  2.9781999999999993  -1.8940000000000001  -5.4969 
C  4.0329  -0.5326000000000002  -6.5829 
H  4.359999999999999  -1.1440000000000001  -7.2336 
C  4.349500000000001  0.7864  -6.6587 
C  3.853999999999999  1.7032999999999996  -5.7552 
H  4.043699999999999  2.6292  -5.8552 
C  3.0756999999999994  1.2561  -4.7022 
H  2.7433999999999994  1.8740999999999994  -4.0625 
N  1.6530000000000005  0.19819999999999993  -2.4106 
N  0.9805000000000001  -0.6349000000000002  -1.6204999999999998 
N  0.9084000000000003  -1.8547000000000002  -2.1214 
N  1.5671  -1.8442  -3.2773 
Cl  5.3771  1.3567999999999998  -7.946899999999999 
