14
unq_CSD-DUFDAK-01-a
O  1.5827999999999998  2.6978999999999997  0.16989999999999994 
N  -0.5220000000000002  1.9143  -0.17359999999999998 
F  1.4078  5.395099999999999  1.3465000000000003 
F  1.7706  5.3857  -0.7192 
F  0.19819999999999993  6.567399999999999  0.08200000000000007 
C  0.36329999999999973  2.9364  0.013600000000000056 
C  -0.16579999999999995  4.2636  0.006900000000000128 
C  -1.4868999999999999  4.4914  -0.1553 
H  -1.8079  5.3634  -0.17389999999999994 
C  -2.3707000000000003  3.4231999999999996  -0.29580000000000006 
H  -3.2868  3.5587  -0.38029999999999986 
C  -1.8395000000000001  2.1807  -0.30359999999999987 
H  -2.4199  1.4619999999999997  -0.4062999999999999 
C  0.7934000000000001  5.393599999999999  0.16080000000000005 
