43
unq_CSD-PACYOK-01-a
Si  -0.4256000000000002  2.9589999999999996  1.7601 
N  0.5804999999999998  1.6278999999999986  1.3333999999999997 
C  1.9522999999999997  1.6255999999999986  1.7266 
C  2.3482  1.0965999999999987  2.9822 
C  3.6957999999999998  1.0568999999999988  3.3117999999999994 
H  3.9507  0.6984999999999992  4.143599999999999 
C  4.667400000000001  1.5274  2.4592999999999994 
H  5.574400000000001  1.4842999999999993  2.7014 
C  4.2973  2.059899999999999  1.255 
H  4.9613  2.3857  0.6755999999999998 
C  2.9567  2.1289  0.8636999999999997 
C  1.3482999999999996  0.5175000000000001  3.9628 
H  0.4422999999999999  0.6966999999999999  3.6077 
C  1.4415999999999998  1.168899999999999  5.35 
H  2.2982  0.9535  5.7513999999999985 
H  0.7267999999999999  0.8328999999999986  5.912799999999999 
H  1.3586999999999998  2.1305999999999994  5.260999999999999 
C  1.5025  -0.9956000000000014  4.093999999999999 
H  1.3055999999999996  -1.4162  3.2415 
H  0.8889  -1.3265000000000011  4.766500000000001 
H  2.413  -1.2059000000000015  4.354699999999999 
C  2.6303999999999994  2.778599999999999  -0.46530000000000027 
H  1.6643999999999997  2.6425  -0.6321000000000001 
C  3.3909  2.1564999999999994  -1.6357000000000002 
H  4.3391  2.3321999999999985  -1.5364000000000002 
H  3.0771  2.5442  -2.4675000000000002 
H  3.2377  1.1982  -1.6481000000000003 
C  2.8778  4.2883  -0.4107000000000003 
H  2.4813999999999994  4.651899999999998  0.39419999999999966 
H  2.4781  4.7088  -1.1887 
H  3.8329  4.4589  -0.4066000000000001 
C  0.5280999999999998  4.1693999999999996  2.8669 
H  1.1056999999999997  4.7226  2.3185999999999996 
H  1.0660999999999996  3.6712999999999987  3.5021999999999998 
H  -0.09980000000000011  4.731199999999998  3.347 
C  -0.7707000000000002  4.136599999999998  0.35699999999999976 
H  0.02210000000000001  4.6656999999999975  0.17689999999999984 
H  -1.5032  4.7242999999999995  0.5991 
H  -1.0099000000000002  3.633399999999998  -0.4376000000000002 
C  -2.0802  2.3218999999999994  2.3124 
H  -2.4787000000000003  1.7944999999999993  1.6026000000000002 
H  -2.6602  3.0680999999999994  2.5254999999999996 
H  -1.9662000000000002  1.7669999999999995  3.1007000000000002 
