48
unq_CSD-KIQRAD-01-a
N  -1.4566  0.3146999999999984  -1.3236999999999997 
C  -2.5311000000000003  -0.607400000000001  -1.1246999999999998 
C  -2.5727  -1.8291000000000013  -1.8344999999999994 
C  -3.6032  -2.7258000000000004  -1.6121999999999996 
H  -3.5922  -3.534600000000001  -2.0709999999999997 
C  -4.6202000000000005  -2.485500000000001  -0.7680999999999996 
H  -5.295  -3.115000000000001  -0.6533999999999995 
C  -4.6508  -1.253800000000001  -0.04579999999999984 
H  -5.354900000000001  -1.0473000000000008  0.5241000000000007 
C  -3.5457  -0.33670000000000044  -0.23579999999999934 
C  -1.4579000000000004  -2.2098000000000004  -2.8076 
H  -0.8198000000000008  -1.4670000000000005  -2.8667999999999996 
C  -0.7293000000000003  -3.4517000000000007  -2.2985999999999995 
H  0.007799999999999585  -3.651300000000001  -2.8792999999999997 
H  -1.3368000000000002  -4.196200000000001  -2.2860999999999994 
H  -0.4029000000000007  -3.2909000000000006  -1.4114999999999993 
C  -2.0238000000000005  -2.492300000000001  -4.193 
H  -2.6693  -3.2013000000000007  -4.135599999999999 
H  -1.3124000000000002  -2.754600000000001  -4.780799999999999 
H  -2.4455999999999998  -1.7005000000000008  -4.5335 
C  -3.5628  0.9051999999999989  0.6549000000000014 
H  -2.9370000000000003  1.5515999999999988  0.26420000000000066 
C  -3.0604000000000005  0.5752999999999986  2.0295000000000005 
H  -2.7035  1.3653999999999993  2.4398999999999997 
H  -2.3722000000000003  -0.09140000000000015  1.9686000000000003 
H  -3.7853000000000003  0.23689999999999856  2.5618 
C  -4.9356  1.5854  0.7248000000000001 
H  -4.8427  2.451699999999999  1.1280000000000001 
H  -5.5321  1.0489999999999995  1.2517000000000014 
H  -5.290100000000001  1.681799999999999  -0.1623000000000001 
Si  -1.3161000000000005  1.5498999999999992  -2.5046999999999997 
C  -0.3993000000000002  0.9626999999999999  -4.0531999999999995 
H  -0.8931000000000004  0.25039999999999907  -4.4672 
H  0.4723000000000006  0.6446999999999985  -3.8076999999999996 
H  -0.3125  1.6919999999999984  -4.669699999999999 
C  -3.0201000000000002  2.0878999999999994  -2.985099999999999 
H  -3.5482000000000005  1.319799999999999  -3.2108999999999996 
H  -2.9688  2.6750999999999987  -3.7432 
H  -3.4272  2.551499999999999  -2.2501999999999995 
N  -0.3712  2.8154999999999983  -1.8200999999999992 
C  0.9110999999999994  3.2468999999999983  -2.1856999999999998 
H  0.8879000000000001  4.186  -2.3846999999999996 
H  1.2020999999999997  2.763  -2.9617999999999993 
H  1.5198999999999998  3.0862  -1.4616999999999996 
C  -0.9237000000000002  3.6327  -0.7501999999999995 
H  -0.5533000000000001  3.3534999999999986  0.0904000000000007 
H  -1.8784  3.5311999999999983  -0.7304999999999993 
H  -0.7049000000000003  4.5549  -0.9078999999999997 
