27
unq_CSD-LAMGAL-01-a
B  3.9010999999999996  -0.5135000000000001  -1.6132999999999997 
N  1.5415  -0.3485999999999998  -0.8464999999999998 
Br  4.9177  0.3762000000000003  -0.1706000000000003 
N  2.5345999999999997  -0.6618999999999997  -1.5408999999999997 
C  4.7493  -1.0227  -2.8449999999999998 
C  5.0613  -0.13209999999999988  -3.8855 
C  5.7903  -0.5697999999999999  -5.0020999999999995 
C  6.1809  -1.8995  -5.0576 
H  6.6792  -2.1976  -5.8102 
C  5.8747  -2.8110999999999997  -4.0583 
C  5.1607  -2.3765  -2.9314 
C  4.6312999999999995  1.3106999999999998  -3.793 
H  4.1346  1.5552000000000001  -4.6032 
H  5.4231  1.8826999999999998  -3.7107 
H  4.0572  1.4310999999999998  -3.0096 
C  6.132  0.36370000000000013  -6.1372 
H  6.7882  -0.06519999999999992  -6.7253 
H  6.5098  1.1934000000000005  -5.7773 
H  5.3206  0.569  -6.6471 
C  6.3045  -4.2497  -4.2043 
H  6.9319  -4.4776  -3.4886999999999997 
H  6.7428  -4.3715  -5.0741 
H  5.5193  -4.8328  -4.1508 
C  4.8546  -3.332  -1.8066 
H  5.6925  -3.6624  -1.42 
H  4.3342  -4.0872  -2.1521 
H  4.3373  -2.8685  -1.1156999999999995 
