20
unq_CSD-ENABIH-01-c
N  0.2867999999999995  -4.3139  0.4516 
N  0.1396999999999995  -1.9676999999999998  0.7639 
N  0.29329999999999945  -3.4518  2.6082999999999994 
C  0.30349999999999966  -4.1338  -0.9911000000000001 
H  -0.5939000000000005  -4.0047  -1.3082000000000003 
H  0.6821999999999999  -4.9104  -1.4075000000000002 
H  0.8339999999999996  -3.3627  -1.2106000000000001 
C  0.13070000000000004  -2.3186999999999998  3.4964 
H  0.9409000000000001  -1.8022  3.5094 
H  -0.06320000000000014  -2.6334  4.3828 
H  -0.5937000000000001  -1.7694999999999999  3.1873 
C  0.2272999999999996  -3.1317  1.2258 
C  1.3664000000000005  -4.343  3.0457999999999994 
H  1.4198000000000004  -5.0941  2.4504999999999995 
H  1.1832000000000003  -4.6503  3.9354999999999998 
H  2.2005999999999997  -3.8665  3.0361 
C  -0.4405999999999999  -5.5015  0.8663999999999996 
H  -0.6974999999999998  -5.4142  1.7868999999999997 
H  0.11929999999999996  -6.2745  0.7622999999999998 
H  -1.2269000000000005  -5.6015  0.3247 
