13
unq_CSD-PORWUQ-01-a
N  -0.6581999999999999  -2.003  -0.40639999999999965 
N  -2.5132000000000003  -2.0952  2.6185 
N  -2.8774  -6.0625  0.8407999999999998 
N  -0.6238000000000001  -5.962400000000001  -3.0797 
N  1.1025  -2.0651  -3.4985 
C  -1.4321000000000002  -2.8047000000000004  0.3882000000000003 
C  -1.6104  -4.0661000000000005  -0.1741999999999999 
C  -0.9120000000000001  -4.045  -1.3980000000000001 
C  -0.3538999999999999  -2.7721  -1.4886 
C  -2.0077  -2.3796000000000004  1.6262999999999996 
C  -2.3215000000000003  -5.171  0.3844000000000003 
C  -0.7688999999999999  -5.1091  -2.3317 
C  0.4628000000000001  -2.3341000000000003  -2.5854 
