26
unq_CSD-ESEGIS-01-b
N  1.4370000000000003  1.4533999999999994  -0.921999999999997 
C  2.1325000000000003  0.9847999999999999  -2.120499999999998 
H  1.8676999999999992  0.044299999999999784  -2.277199999999999 
H  3.1038999999999994  0.9870000000000001  -1.927299999999999 
C  1.9114000000000004  1.755  -3.4202999999999992 
C  0.9001000000000001  2.6849  -3.5778999999999996 
H  0.3384999999999998  2.8945999999999996  -2.8419999999999987 
C  0.6932999999999998  3.3202  -4.803399999999998 
H  -0.0118999999999998  3.9489  -4.8984999999999985 
C  1.5169999999999995  3.0325999999999995  -5.880299999999998 
H  1.3838  3.4688  -6.7136 
C  2.5325000000000006  2.1094  -5.735299999999999 
H  3.0968999999999998  1.9089  -6.472099999999999 
C  2.7337000000000007  1.4719999999999995  -4.516699999999998 
H  3.4351000000000003  0.8387000000000002  -4.427899999999999 
C  1.9309999999999992  2.6495999999999995  -0.43019999999999925 
C  3.0013000000000005  3.3819  -1.0193999999999974 
H  3.3915000000000006  3.0621  -1.8249999999999993 
C  3.4894999999999996  4.5461  -0.4508999999999972 
H  4.2133  4.9952  -0.8713999999999977 
C  2.955399999999999  5.074800000000001  0.7114000000000011 
H  3.3002000000000002  5.8725  1.0951000000000022 
C  1.8918  4.3938999999999995  1.297900000000002 
H  1.4977  4.741599999999999  2.089600000000001 
C  1.3970000000000002  3.2226  0.7544000000000004 
H  0.6742999999999997  2.7862  1.1891999999999996 
