16
unq_CSD-PTAZRU-01-e
C  -1.3051  -3.249599999999999  -2.1470000000000002 
C  -1.717  -4.581499999999998  -2.0543000000000005 
C  -2.1423  -5.261199999999999  -3.1981 
C  -2.1572  -4.6091  -4.4328 
C  -1.7452999999999999  -3.277199999999999  -4.5255 
C  -1.3199999999999998  -2.5974999999999984  -3.3817000000000004 
C  -2.6073  -5.3386  -5.671200000000001 
H  -1.7159  -5.058599999999998  -1.1663000000000001 
H  -2.4424  -6.219099999999999  -3.1314 
H  -1.7626  -2.8111999999999995  -5.4117 
H  -1.0361  -1.6506999999999987  -3.4466 
H  -1.9335  -6.016499999999999  -5.9308000000000005 
H  -3.4726999999999997  -5.8507  -5.4487000000000005 
H  -2.7896  -4.708599999999999  -6.3942 
N  -0.5512  -1.5456999999999983  -0.6973000000000003 
N  -0.8987  -2.608599999999999  -0.9976000000000003 
