48
unq_CSD-IMICUD-01-b
N  -1.9634999999999998  -0.04459999999999997  -0.6682999999999999 
C  -2.4623999999999997  1.1555999999999997  -1.2199999999999998 
C  -1.9246999999999999  2.3847  -0.8138999999999998 
H  -1.2742999999999998  2.4088  -0.1479999999999997 
C  -2.3528  3.5626  -1.3993999999999998 
C  -3.2922  3.5753999999999997  -2.4071999999999996 
H  -3.5587  4.3734  -2.8051 
C  -3.8225999999999996  2.3703  -2.8068 
C  -3.4292  1.1940999999999997  -2.2333999999999996 
H  -3.8093  0.39769999999999994  -2.5254 
C  -1.9211999999999998  4.929499999999999  -0.8472 
F  -2.4528  5.907  -1.2093999999999998 
F  -0.6438999999999999  5.0593  -1.3776999999999997 
F  -1.7495999999999998  4.9247  0.44520000000000026 
C  -4.9022  2.3591  -3.8539999999999996 
F  -4.9254999999999995  1.2582  -4.5832999999999995 
F  -4.769399999999999  3.3574999999999995  -4.729699999999999 
F  -6.100899999999999  2.4824999999999995  -3.3127 
C  -2.7245999999999997  -1.1824000000000001  -0.7048999999999999 
C  -1.9301999999999997  -2.4499  -0.9966999999999997 
F  -2.7245  -3.4959  -1.2396999999999998 
F  -1.1749999999999998  -2.7959  0.05940000000000012 
F  -1.1186999999999998  -2.3153  -2.0395 
C  -4.0448  -1.3122000000000003  -0.5 
H  -4.4174  -2.1423  -0.6928999999999998 
C  -4.9541  -0.2754000000000001  -0.0008999999999996788 
C  -6.2919  -0.21930000000000005  -0.7048999999999999 
F  -6.185499999999999  -0.25450000000000017  -2.0141999999999998 
F  -7.0222  0.8207  -0.3663999999999996 
F  -7.0156  -1.2913000000000001  -0.3335999999999997 
N  -4.8047  0.5434999999999999  0.9491 
C  -3.6769  0.5002  1.8123000000000005 
C  -3.2055  -0.6936000000000002  2.4079000000000006 
H  -3.6245  -1.5029000000000001  2.2222 
C  -2.13  -0.6584000000000001  3.2639000000000005 
C  -1.4882  0.5002  3.5629 
H  -0.7494999999999998  0.5002  4.1271 
C  -1.9551999999999998  1.6797  3.0155000000000003 
C  -3.0385999999999997  1.6812999999999998  2.1644000000000005 
H  -3.3461999999999996  2.4873  1.8196000000000003 
C  -1.8790999999999998  -1.9980000000000002  3.8184000000000005 
F  -0.7955999999999999  -1.8474000000000002  4.8215 
F  -1.5981999999999998  -2.9147  2.8443000000000005 
F  -3.0317999999999996  -2.6903  4.373 
C  -1.1864  2.9713  3.2639000000000005 
F  -1.9768  4.019299999999999  3.1968000000000005 
F  -0.6046999999999998  2.9937  4.4497 
F  -0.22829999999999995  3.1091  2.3585000000000003 
