36
unq_CSD-DASGIR-01-a
S  -9.608400000000001  0.0  -1.7245 
S  -1.2167000000000012  0.0  -4.737 
N  -6.734400000000001  0.0  -0.617 
H  -6.920200000000001  0.0  -1.4259999999999993 
N  -5.471700000000001  0.0  -0.23099999999999987 
N  -4.8173  0.0  -2.5119 
N  -3.759900000000001  0.0  -3.2058999999999997 
N  -2.111700000000001  0.0  -0.33589999999999964 
O  -11.0166  0.0  -1.6795999999999998 
O  -8.9916  -1.1755  -2.2513999999999994 
O  -1.0924000000000014  1.2054  -3.9427 
O  -0.33330000000000126  0.0  -5.8877 
C  -7.742900000000001  0.0  0.34970000000000034 
C  -9.0951  0.0  -0.030100000000000016 
C  -10.0754  0.0  0.9516 
H  -10.9707  0.0  0.7004999999999999 
C  -9.7504  0.0  2.2830000000000004 
H  -10.4206  0.0  2.928 
C  -8.417000000000002  0.0  2.6628 
H  -8.191300000000002  0.0  3.5651 
C  -7.423400000000001  0.0  1.7044000000000006 
H  -6.531300000000001  0.0  1.9669999999999996 
C  -4.549600000000001  0.0  -1.1463 
C  -3.1910000000000007  0.0  -0.6745999999999999 
C  -3.977800000000001  0.0  -4.6084 
C  -2.8541000000000007  0.0  -5.4242 
C  -2.9949000000000003  0.0  -6.8022 
H  -2.2416  0.0  -7.348599999999999 
C  -4.2544  0.0  -7.3629999999999995 
H  -4.3485000000000005  0.0  -8.2883 
C  -5.363100000000001  0.0  -6.5691 
H  -6.2075000000000005  0.0  -6.9589 
C  -5.2449  0.0  -5.1842999999999995 
H  -6.004700000000001  0.0  -4.6485 
O  -8.9916  1.1754999999999995  -2.2513999999999994 
O  -1.0924000000000014  -1.2054  -3.9427 
