18
unq_CSD-FECYUL-01-a
N  1.6087999999999996  0.9682999999999993  -0.46419999999999995 
N  3.3836000000000004  1.6390999999999991  -1.5875 
N  -0.18310000000000048  2.7150999999999996  1.0932 
N  2.6091000000000006  0.5927000000000007  -1.3134 
C  1.347599999999999  4.543599999999998  0.5391000000000004 
C  0.9368999999999996  3.185399999999998  0.5109000000000004 
C  0.5195999999999996  5.4223  1.2461000000000002 
H  0.7450999999999999  6.322199999999999  1.3125999999999998 
C  -0.9407000000000005  3.5981999999999985  1.726 
H  -1.7277000000000005  3.2955000000000005  2.1174999999999997 
C  -0.6320000000000006  4.952400000000001  1.8424000000000005 
H  -1.1905000000000001  5.527699999999999  2.3133 
C  2.8801999999999994  2.7117000000000004  -0.9099999999999999 
C  1.7631000000000006  2.2952999999999975  -0.21720000000000006 
C  3.3019000000000007  4.0837  -0.8617999999999999 
H  4.0706999999999995  4.3657  -1.3019999999999998 
C  2.5401  4.9543  -0.15369999999999973 
H  2.797299999999999  5.8470999999999975  -0.11419999999999986 
