44
unq_CSD-ZECGEX-01-c
C  -3.0013000000000005  0.7116000000000002  0.16270000000000007 
C  -4.7986  2.2039  0.4236000000000004 
H  -5.1051  2.6841  -0.3860999999999999 
H  -5.0879  2.707  1.2256999999999998 
C  -5.3353  0.7785000000000002  0.44950000000000045 
H  -5.6886  0.5451000000000001  1.3445 
H  -6.0496  0.6524000000000001  -0.22420000000000018 
C  -2.5002000000000004  3.1146000000000003  -0.012699999999999712 
C  -2.3001000000000005  3.311  -1.3847999999999998 
C  -1.4899000000000004  4.368  -1.7749000000000001 
H  -1.3332000000000002  4.5191  -2.6995 
C  -0.9088000000000003  5.2041  -0.8422000000000001 
H  -0.3545000000000007  5.9202  -1.1299000000000001 
C  -1.1270000000000002  5.0053  0.49549999999999983 
H  -0.7141000000000002  5.5813  1.1280999999999999 
C  -1.9476000000000004  3.9690000000000003  0.9416000000000002 
C  -2.2148000000000003  3.8436000000000003  2.4109 
H  -2.9432  3.2049000000000003  2.5572 
H  -2.4689  4.718  2.7725999999999997 
H  -1.4056000000000002  3.5255  2.8638000000000003 
C  -2.9545000000000003  2.4212  -2.4103 
H  -2.7783  2.7730000000000006  -3.3079 
H  -3.9212000000000002  2.3969000000000005  -2.2527 
H  -2.5886000000000005  1.5149  -2.3373 
C  -4.2022  -1.4499999999999997  0.05820000000000025 
C  -4.0147  -2.2005  1.2141000000000002 
C  -4.1121  -3.5875999999999997  1.1237000000000004 
H  -3.9946  -4.1181  1.9030000000000005 
C  -4.3765  -4.1978  -0.08000000000000007 
H  -4.430000000000001  -5.145  -0.1288999999999998 
C  -4.5639  -3.4394  -1.2161 
H  -4.7442  -3.8709999999999996  -2.043 
C  -4.492900000000001  -2.0546999999999995  -1.1681 
C  -4.7283  -1.2226999999999997  -2.3933999999999997 
H  -4.9226  -1.8093999999999997  -3.1540999999999997 
H  -3.9277  -0.6917999999999997  -2.5865 
H  -5.4886  -0.6237999999999997  -2.2403 
C  -3.7031  -1.5350999999999997  2.5202 
H  -2.7556000000000003  -1.2885999999999997  2.5437000000000003 
H  -3.8992000000000004  -2.1521999999999997  3.2560000000000002 
H  -4.2532000000000005  -0.7291999999999998  2.6151 
N  -1.8023000000000002  0.2553000000000001  0.012500000000000178 
N  -3.3413000000000004  2.0261000000000005  0.41059999999999963 
N  -4.1515  -0.019999999999999574  0.12260000000000026 
