7
unq_CSD-MAQYUC-01-a
O  4.598  1.6066000000000003  2.5626 
N  1.5222000000000002  1.0470000000000006  1.1237 
N  2.5823  2.681400000000001  2.0982 
N  3.3645  1.5895000000000001  2.0741 
N  1.4615  2.3313000000000006  1.5170999999999997 
C  2.7169  0.6012000000000004  1.4780000000000002 
H  3.0518  -0.2759999999999998  1.3299999999999996 
