12
unq_CSD-WAYDUY-01-b
N  -1.7983  0.7188999999999997  -0.14129999999999998 
C  -2.0171  2.0853  -0.20930000000000004 
H  -1.3449  2.7361000000000004  -0.3721 
C  -3.3264  2.359300000000001  -0.009199999999999875 
H  -3.732  3.2187  0.0020000000000000018 
C  -3.9699999999999998  1.1202000000000005  0.17840000000000011 
H  -4.899  0.9916999999999998  0.3325 
C  -3.0259  0.13930000000000042  0.10010000000000008 
C  -3.214  -1.3369  0.21940000000000004 
H  -2.8269  -1.7799999999999994  -0.5647 
H  -4.1704  -1.5414999999999992  0.27160000000000006 
H  -2.7662  -1.6586999999999996  1.0296 
