22
unq_CSD-WAYHAI-01-d
N  -0.2610999999999999  -0.5785999999999998  1.8638000000000012 
C  -0.5280999999999998  0.1559999999999988  3.016300000000001 
C  -1.2138999999999998  -0.6380999999999997  3.9008000000000003 
H  -1.5215999999999998  -0.38039999999999985  4.761900000000001 
C  -1.3779  -1.8979999999999997  3.3089000000000013 
H  -1.8053  -2.6538000000000004  3.695500000000001 
C  -0.8086999999999998  -1.830400000000001  2.0767000000000007 
H  -0.7891999999999999  -2.5429000000000004  1.4492000000000012 
C  -0.10359999999999969  1.5528999999999993  3.2224000000000004 
C  1.161  2.016399999999999  2.8787000000000003 
H  1.7809  1.4225999999999992  2.4723000000000006 
C  1.5304000000000002  3.324  3.1189999999999998 
H  2.3929  3.6175999999999995  2.851700000000001 
C  0.6705000000000001  4.226099999999999  3.742700000000001 
C  -0.5873999999999999  3.755699999999999  4.1081 
H  -1.1949999999999998  4.3423  4.543000000000001 
C  -0.9698999999999998  2.452  3.8514 
H  -1.8378999999999999  2.162099999999999  4.107000000000001 
C  1.0879000000000003  5.650399999999999  3.982000000000001 
H  0.8646000000000003  6.1927  3.1971000000000007 
H  2.0542  5.6853  4.139000000000001 
H  0.617  6.001900000000001  4.765700000000001 
