9
unq_CSD-WELSIP-01-a
Br  5.6434  -1.8325999999999998  1.2715999999999994 
Br  5.253  -2.0477  -2.3236000000000008 
N  2.0522  -0.6721999999999997  -0.22100000000000009 
C  2.9448999999999996  -0.8811  0.7916999999999987 
C  4.1231  -1.3817  0.2859999999999996 
C  3.95  -1.4768  -1.0764000000000014 
C  2.6803999999999997  -1.0568999999999997  -1.3760000000000012 
H  2.7808  -0.7115  1.6917999999999989 
H  2.3053999999999997  -1.0383  -2.2274000000000003 
