24
unq_CSD-WEMWAO-01-a
C  1.2020999999999997  -2.8284  -2.6142 
C  2.0854  -2.5372999999999997  -3.6136 
C  1.9655999999999993  -2.9436  -4.9190000000000005 
H  2.6057999999999995  -2.7192  -5.5547 
C  0.8602999999999996  -3.697  -5.2532 
H  0.7501999999999995  -3.9861999999999997  -6.1297 
C  -0.07730000000000015  -4.0245  -4.3114 
H  -0.8239000000000005  -4.5341  -4.529 
C  0.1322000000000001  -3.566  -3.0278 
C  1.3982999999999999  -2.3941  -1.1825999999999999 
C  2.3808999999999996  -3.1473999999999998  -0.36539999999999995 
C  3.0256999999999996  -4.2694  -0.8504999999999999 
H  2.8610999999999995  -4.553599999999999  -1.7207999999999999 
C  3.9152999999999993  -4.9757  -0.05489999999999995 
H  4.3265  -5.7404  -0.38739999999999997 
C  4.1887  -4.5542  1.2147999999999999 
H  4.7967  -5.0214  1.7416 
C  3.5636  -3.4385  1.7074000000000003 
H  3.7529999999999992  -3.1479999999999997  2.5699 
C  2.6595999999999993  -2.7460999999999998  0.9382000000000001 
H  2.2283  -2.0023999999999997  1.2925 
F  3.194  -1.8195999999999999  -3.2859999999999996 
F  -0.7769000000000004  -3.8937  -2.0702 
N  0.7271000000000001  -1.3994  -0.7364999999999999 
