35
unq_CSD-WIKCAW-01-a
As  4.265899999999999  -0.1637000000000004  -2.2553 
N  1.8692000000000002  0.7111999999999998  -0.9032999999999998 
C  3.602900000000001  4.5018  -1.7908 
C  4.462599999999999  -2.0965000000000003  -2.5591 
C  4.535900000000001  -3.0336  -1.5282999999999998 
H  4.492500000000001  -2.7404  -0.6261000000000001 
C  2.4196999999999997  2.0272999999999994  -1.1776 
C  3.9149000000000003  3.8213999999999997  -0.6190999999999995 
H  4.5445  4.207199999999999  -0.019999999999999574 
C  2.0503  2.7078999999999995  -2.3510999999999997 
C  1.0358  2.1257  -3.2938 
H  0.9146999999999998  2.7297000000000002  -4.0568 
H  0.18240000000000034  2.0144  -2.8268999999999993 
H  1.3502  1.2543999999999995  -3.6144999999999996 
C  3.6780999999999997  1.9285999999999994  1.0160999999999998 
H  4.3282  2.4778000000000002  1.5059000000000005 
H  4.0638  1.0450999999999997  0.8417000000000012 
H  2.8645000000000005  1.8286999999999995  1.5534999999999997 
C  2.653200000000001  3.9334999999999996  -2.6259999999999994 
H  2.4043  4.397200000000001  -3.4171999999999993 
C  4.308700000000001  5.7871999999999995  -2.1467 
H  3.9593999999999996  6.126599999999999  -2.9978 
H  5.2703999999999995  5.6206000000000005  -2.2330999999999994 
H  4.1529  6.451199999999999  -1.4436999999999998 
C  2.6628  -0.2959000000000005  -1.3521 
C  4.553999999999999  -2.5675000000000003  -3.8611999999999993 
H  4.521400000000001  -1.9462000000000002  -4.5801 
C  3.3397999999999994  2.5953999999999997  -0.28779999999999895 
C  4.673000000000001  -4.3887  -1.7978999999999994 
H  4.711799999999999  -5.0122  -1.0824999999999996 
C  4.6911  -3.9126000000000003  -4.1361 
H  4.743799999999999  -4.2072  -5.0382 
C  4.7532000000000005  -4.8328  -3.1071 
H  4.849900000000001  -5.7595  -3.2955999999999994 
H  2.3561000000000005  -1.1839000000000004  -1.1793999999999993 
