15
unq_CSD-WIKDOL-01-a
C  -3.1921999999999997  -1.8392  2.0157 
C  -3.6809  -2.9108  2.9072999999999993 
N  -1.9135  -1.5755  1.7821999999999998 
N  -1.9818999999999996  -0.5635000000000003  0.8958000000000002 
N  -3.2359999999999998  -0.2519999999999998  0.6361000000000001 
N  -4.0405  -1.0602999999999998  1.3440999999999999 
N  -5.004899999999999  -2.4871  3.5705999999999998 
N  -2.7234  -3.3043000000000005  4.0175 
N  -4.0144  -4.220700000000001  2.1722 
O  -4.998799999999999  -1.3908000000000005  4.0816 
O  -5.9277999999999995  -3.2801  3.524 
O  -3.1338  -3.1944  5.1601 
O  -1.6506999999999996  -3.7055  3.6511999999999993 
O  -4.447  -4.0895  1.0450000000000002 
O  -3.8684  -5.2582  2.7919 
