9
unq_CSD-SISJAI-01-a
N  1.2201999999999997  1.4101  0.7674000000000003 
N  0.7944999999999998  2.4454000000000002  1.4655000000000005 
N  1.8671000000000002  3.1306000000000003  1.8995999999999995 
C  2.9242000000000004  2.4534000000000002  1.4311000000000007 
N  2.5658999999999996  1.3803  0.7250999999999994 
C  4.338099999999999  2.8432000000000004  1.7114999999999991 
H  4.9293  2.1661  1.3742999999999999 
H  4.463199999999999  2.9352  2.6593 
H  4.5306999999999995  3.6795999999999998  1.2815999999999992 
