41
unq_CSD-XAKYIU-01-a
S  -3.8522  -0.44620000000000015  2.2385 
S  -1.5766999999999998  0.6950000000000003  4.3527000000000005 
C  -2.1699999999999995  -0.047100000000000364  1.968300000000001 
N  -1.8059999999999996  -0.3435000000000006  0.7279 
N  -1.2872999999999997  0.5103999999999989  2.7916000000000007 
N  -2.7989999999999995  -0.8939000000000004  -0.060399999999999565 
O  -8.6098  -3.197  -1.5924999999999994 
C  -5.1286  -1.6065000000000005  0.0129999999999999 
C  -7.4357  -2.6937000000000006  -1.1245999999999992 
C  -3.9105999999999996  -1.0249000000000006  0.5920000000000005 
O  -2.9844999999999997  0.7652999999999999  4.633800000000001 
C  -0.9857999999999993  -0.7917000000000005  5.116000000000001 
O  -0.7387999999999995  1.7661999999999995  4.8049 
C  -1.3716999999999997  -3.0739  5.763500000000002 
H  -1.9328999999999996  -3.8137000000000008  5.809900000000001 
C  0.4209000000000005  -4.3241000000000005  6.930300000000001 
H  -0.12659999999999982  -5.0718000000000005  7.000400000000001 
C  0.7884000000000002  -2.0299000000000005  6.191000000000001 
C  -0.05999999999999961  -3.1642  6.2874 
C  -6.322699999999999  -1.6480000000000006  0.7248999999999999 
H  -6.353  -1.3061000000000007  1.590300000000001 
C  0.29300000000000015  -0.8428000000000004  5.611500000000001 
H  0.8369  -0.09030000000000005  5.563800000000002 
C  -1.8302999999999998  -1.9228000000000005  5.190400000000002 
H  -2.6950999999999996  -1.8829000000000002  4.850000000000001 
C  -5.1223  -2.1089  -1.2783999999999995 
H  -4.335999999999999  -2.0826000000000002  -1.7725999999999988 
C  -6.2604999999999995  -2.6482  -1.8453 
H  -6.235099999999999  -2.9797000000000002  -2.7127 
C  -7.4601999999999995  -2.1888000000000005  0.16740000000000066 
H  -8.2493  -2.2152000000000003  0.6590000000000007 
C  2.1137000000000006  -2.1241000000000003  6.713500000000002 
H  2.6959  -1.4036  6.629199999999999 
C  2.5289  -3.2561  7.332100000000002 
H  3.3901000000000003  -3.2976  7.681300000000002 
C  -8.665  -3.6699  -2.9277999999999995 
H  -8.4512  -2.9541000000000004  -3.5298 
H  -9.5487  -3.9942  -3.1168999999999993 
H  -8.0312  -4.3832  -3.039999999999999 
C  1.6843000000000004  -4.360900000000001  7.452 
H  1.9819000000000004  -5.125400000000001  7.889999999999999 
