25
unq_CSD-XEWBUX-01-b
N  1.2326000000000015  -0.41410000000000036  -1.5382000000000002 
N  1.6455000000000002  1.8019999999999996  -3.1701000000000006 
H  1.634500000000001  1.8416999999999994  -2.2749000000000006 
O  2.8872999999999998  -0.648200000000001  -0.02600000000000069 
O  2.4491000000000014  2.7814999999999994  -5.0747 
C  0.7200000000000006  -0.4088000000000003  -2.8768000000000002 
C  0.3742000000000001  0.7176999999999989  -4.9835 
H  0.4775000000000009  1.463799999999999  -5.5299000000000005 
C  0.9279000000000011  0.7081999999999997  -3.6959000000000004 
C  -0.3248999999999995  -0.38230000000000075  -5.4426000000000005 
H  -0.6662999999999997  -0.37820000000000054  -6.3077000000000005 
C  -0.5269999999999992  -1.4943000000000008  -4.6353 
H  -1.003099999999999  -2.2270000000000003  -4.954000000000001 
C  -0.007600000000000051  -1.4972000000000003  -3.3406000000000002 
H  -0.1493000000000002  -2.230600000000001  -2.7859000000000003 
C  2.515500000000001  -0.6842000000000006  -1.2045000000000003 
C  3.4839  -1.043400000000001  -2.3138000000000005 
H  4.0968  -0.31700000000000017  -2.4507000000000003 
H  2.995800000000001  -1.2066000000000008  -3.1235000000000004 
H  3.9725  -1.8324000000000007  -2.0695000000000006 
C  2.3141  2.7744999999999997  -3.8575000000000004 
C  2.9458  3.835699999999999  -2.9807000000000006 
H  3.8939000000000004  3.693999999999999  -2.9394 
H  2.5759000000000007  3.7817999999999987  -2.0955000000000004 
H  2.7674000000000003  4.7042  -3.3489000000000004 
