20
unq_CSD-XEWMUI-01-d
N  -0.9291999999999998  1.3053000000000008  1.123800000000001 
N  -1.3828999999999998  1.7207000000000008  -0.20529999999999937 
C  -1.783  1.4911000000000012  2.284600000000001 
H  -2.6439  1.0402000000000005  2.0953999999999997 
C  -1.1637  0.7996999999999996  3.482300000000002 
H  -1.0126999999999997  -0.13490000000000002  3.2738000000000014 
H  -1.7638999999999998  0.8680000000000003  4.2422 
H  -0.3184999999999998  1.2233  3.6986999999999988 
C  -2.0919  2.971  2.5763999999999996 
H  -2.5044  3.375400000000001  1.7956000000000003 
H  -1.2674999999999996  3.4383  2.7848000000000006 
H  -2.6982999999999997  3.0325000000000006  3.330000000000002 
C  -0.9709999999999996  3.1021  -0.5612999999999992 
H  -1.6264999999999998  3.732100000000001  -0.22299999999999898 
H  -0.9131999999999998  3.184100000000001  -1.5263999999999989 
H  -0.10569999999999968  3.2934  -0.16680000000000028 
C  -2.7859999999999996  1.4679000000000002  -0.5628999999999991 
H  -3.3436999999999997  2.1743000000000006  -0.20209999999999972 
H  -3.065  0.6151999999999997  -0.19409999999999883 
H  -2.8754  1.4474  -1.5279999999999987 
