38
unq_CSD-XEXLIY-01-a
O  -7.4948999999999995  -7.1039  8.2311 
O  -9.646  -6.9519  7.6859 
O  -11.768799999999999  -2.7206  6.921 
O  -10.764299999999999  -0.8214000000000001  7.4912 
N  -1.1963999999999997  -0.34540000000000015  1.7817 
N  -5.1248  -1.8098000000000005  7.4488 
C  -2.0633  0.5438000000000001  2.2621 
H  -2.1507  1.3739  1.8094 
C  -1.0865  -1.4958000000000005  2.4542 
H  -0.4775999999999998  -2.1485000000000003  2.1288 
C  -2.8486  0.32229999999999936  3.39 
H  -3.4516  0.9902999999999995  3.6954 
C  -1.8083999999999998  -1.7900000000000005  3.5934 
H  -1.6680000000000001  -2.6092000000000004  4.0534 
C  -2.7378  -0.8776000000000002  4.0563 
C  -3.5843  -1.1950000000000003  5.2391 
C  -4.2649  -0.21150000000000047  5.9453 
H  -4.206799999999999  0.6966000000000001  5.6701 
C  -3.7617  -2.4792000000000005  5.6509 
H  -3.3308999999999997  -3.1850000000000005  5.1827 
C  -5.0281  -0.5487000000000002  7.0471 
H  -5.4887999999999995  0.13149999999999995  7.5238 
C  -4.5556  -2.7668000000000004  6.7364 
H  -4.6997  -3.6744000000000003  6.9798 
C  -5.9434  -2.1801000000000004  8.6566 
H  -5.398899999999999  -2.7519  9.2547 
H  -6.1784  -1.3578000000000001  9.1545 
C  -7.2024  -2.9106000000000005  8.2923 
C  -7.259399999999999  -4.3056  8.301 
H  -6.4867  -4.8112  8.5249 
C  -8.4397  -4.9519  7.9853 
C  -8.5097  -6.4444  7.9791 
C  -9.5712  -4.2164  7.6697 
H  -10.384699999999999  -4.663  7.4673 
C  -9.5214  -2.8247000000000004  7.6472 
C  -10.7909  -2.0545000000000004  7.3191 
C  -8.3437  -2.1735000000000007  7.9666 
H  -8.3105  -1.2243000000000004  7.9642 
