15
unq_CSD-XORTEE-01-a
O  -4.595000000000001  -4.2931  2.1712000000000007 
O  -3.435600000000001  -3.0753000000000004  3.641 
N  -1.5408999999999997  -1.5536000000000012  0.4076000000000004 
N  -2.0629  -1.8199000000000005  1.619200000000001 
N  -2.0334000000000003  -2.3890000000000002  -0.4845999999999986 
N  -2.9011999999999993  -3.2245  0.1164000000000005 
C  -2.8931000000000004  -2.8388  1.3956 
C  -3.750400000000001  -3.4875000000000007  2.4128000000000007 
C  -4.1861999999999995  -3.6676  4.7469 
H  -3.5792  -4.0555  5.395899999999999 
H  -4.7742  -4.3649000000000004  4.419500000000001 
C  -4.9769000000000005  -2.5713  5.3668 
H  -5.487  -2.9217000000000004  6.101699999999999 
H  -5.571899999999999  -2.1967000000000008  4.7135 
H  -4.3812999999999995  -1.8895  5.686999999999999 
