39
unq_CSD-XOYWOX-01-a
N  -1.6629999999999994  1.1663  -0.5422999999999991 
N  -1.9913999999999996  2.1491999999999996  0.2867999999999995 
N  -1.1959  2.2423  1.2914999999999992 
N  -1.1471999999999998  -0.9531  -2.2043999999999997 
N  -0.9642999999999997  -1.8662  -3.0256000000000007 
N  0.08390000000000075  -2.5552  -2.8012999999999995 
H  0.5943000000000005  -2.3631  -2.1361000000000008 
C  -2.2728999999999995  -0.1380999999999999  -2.5067000000000004 
C  -2.5080999999999998  0.9421999999999999  -1.6463999999999999 
C  -3.5660999999999996  1.8088  -1.9429999999999996 
H  -3.7140999999999997  2.5519  -1.4025999999999996 
C  -4.3797999999999995  1.5836  -3.0002999999999993 
H  -5.085999999999999  2.1616  -3.1798 
C  -4.1564  0.5071000000000001  -3.8001000000000005 
H  -4.746099999999999  0.34150000000000014  -4.500500000000001 
C  -3.0953999999999997  -0.34529999999999994  -3.6148000000000007 
H  -2.9295999999999998  -1.0408  -4.2097999999999995 
C  0.41960000000000086  -3.6879999999999997  -3.6928 
C  1.4980000000000002  -4.463  -3.3748000000000005 
H  1.9958  -4.2958  -2.6061999999999994 
C  1.8268000000000004  -5.4903  -4.213699999999999 
H  2.5682  -6.0147  -4.0167 
C  1.0905000000000005  -5.7685  -5.3393 
H  1.3200000000000003  -6.4737  -5.8992 
C  0.03550000000000075  -4.9951  -5.6007 
H  -0.46249999999999947  -5.1672  -6.3674 
C  -0.35169999999999924  -3.9417999999999997  -4.779400000000001 
H  -1.1068999999999996  -3.4331  -4.9666999999999994 
C  -1.5351  3.2939  2.1732000000000014 
C  -0.7279  3.3258  3.324200000000001 
H  -0.05539999999999967  2.7028999999999996  3.4802999999999997 
C  -1.0162999999999993  4.378  4.229400000000002 
H  -0.4969999999999999  4.4592  4.996099999999998 
C  -2.0149999999999997  5.2699  4.0245999999999995 
H  -2.1886999999999994  5.9264  4.6586 
C  -2.7644999999999995  5.2071  2.889199999999999 
H  -3.4358999999999997  5.8323  2.7390000000000008 
C  -2.5243999999999995  4.212899999999999  1.9625999999999983 
H  -3.0390999999999995  4.1685  1.1900000000000013 
