15
unq_CSD-SITWAU-01-a
O  2.8103  0.1898  1.9061000000000003 
N  0.597  0.8916  1.8323999999999998 
O  -1.386  1.906  2.4686000000000003 
C  -0.217  1.5878  2.6943 
C  0.5423  1.8854  3.9612 
C  0.1718  2.5279  5.129900000000001 
H  -0.684  2.9289  5.2303000000000015 
C  1.1222  2.5556  6.1549 
H  0.902  2.9776  6.9765999999999995 
C  2.3781  1.9844  6.004299999999999 
H  2.9944  2.0098  6.725900000000001 
C  2.7469  1.3711  4.8033 
H  3.6116  0.9955  4.6844 
C  1.8  1.3344  3.7987 
C  1.8346  0.7362  2.4215999999999998 
