11
unq_CSD-INACIM01-01-c
O  -3.0940000000000003  0.5573999999999999  0.0 
O  -5.3504000000000005  -3.2807  0.0 
O  -6.6654  -1.4576  0.0 
N  -2.1901  -0.5373000000000001  0.0 
N  -4.3811  0.09399999999999986  0.0 
N  -2.4983000000000004  -2.8729999999999998  0.0 
H  -1.6526000000000005  -3.0298  0.0 
H  -3.0568  -3.5269  0.0 
C  -2.9437000000000006  -1.6143999999999998  0.0 
C  -4.3254  -1.1932  0.0 
C  -5.5528  -2.0642  0.0 
