9
unq_CSD-XEMJAE-01-d
O  4.583200000000001  1.8743000000000007  2.426 
N  1.787  0.2762000000000002  1.1524 
N  2.7189000000000005  -0.7199999999999998  1.2755 
N  3.821600000000001  -0.2444999999999995  1.7536000000000005 
N  3.628800000000001  1.0732  1.9529000000000005 
N  1.8626000000000005  2.6182000000000007  1.7242000000000006 
H  2.4021  3.3614000000000006  1.8123000000000005 
H  1.0042  2.6647000000000007  1.5186000000000002 
C  2.375700000000001  1.3971  1.5986000000000002 
