9
unq_CSD-SOFHOK-01-f
N  0.21989999999999998  -0.385  -1.9160000000000004 
C  0.05820000000000025  0.5659  -2.9183000000000003 
O  0.05820000000000025  1.7673  -2.7788000000000004 
N  0.06519999999999992  -0.05629999999999999  -4.181900000000001 
C  0.016600000000000392  -1.4109999999999998  -4.0365 
O  -0.011099999999999888  -2.2715  -4.895300000000001 
C  -0.011099999999999888  -1.6205999999999998  -2.5153999999999996 
O  -0.03190000000000026  -2.7315  -1.9632000000000005 
H  0.10679999999999978  0.41369999999999996  -5.0407 
