31
unq_CSD-IQAPEV-01-a
N  -1.8942  0.7247  -0.03799999999999937 
C  -2.4513  1.2342  1.1176000000000004 
S  -3.7274000000000003  2.4622  1.163100000000001 
N  -2.0129  0.8487  2.287300000000001 
C  -3.6562  2.4328  2.8869 
C  -4.3997  3.1639  3.8370000000000006 
C  -4.1159  2.9783  5.1618 
C  -3.1361  2.111  5.560100000000001 
C  -2.3603000000000005  1.3794  4.665500000000001 
C  -2.6657  1.5474  3.3126000000000007 
C  -1.2572  0.4996  5.059 
S  -2.4160000000000004  1.0731  -1.5076 
O  -2.8418  2.4395  -1.6247999999999996 
O  -1.3447  0.5958  -2.3526999999999996 
C  -3.8109  0.0709  -1.8049 
C  -5.1  0.5072  -1.5654999999999992 
C  -6.1862  -0.2846  -1.8098999999999998 
C  -6.0066  -1.5428  -2.3205 
C  -4.7569  -1.9857  -2.5709999999999997 
C  -3.6562  -1.1947  -2.3217999999999996 
H  -5.0394  3.7166  3.5102 
H  -4.5335  3.4142  5.853600000000001 
H  -2.9696  1.9477  6.4232000000000005 
H  -0.3447  0.4654  4.729400000000001 
H  -1.6131000000000002  -0.4338  5.1009 
H  -1.0393  0.5524  5.795800000000001 
H  -5.1774000000000004  1.2906  -1.3580999999999994 
H  -6.9972  0.0178  -1.7309999999999999 
H  -6.6949  -2.0485  -2.4396999999999993 
H  -4.531  -2.7353  -2.9873 
H  -2.8091999999999997  -1.4013  -2.5538999999999996 
