36
unq_CSD-IQAPIZ-01-a
S  1.2905999999999995  1.0906  -4.0589 
S  -1.1472000000000002  2.9652  -2.8681 
O  -2.5585  3.04  -2.6153000000000004 
O  -0.7010999999999998  2.9634  -4.2415 
O  5.7528999999999995  -3.391  -3.8120000000000003 
O  5.456  -2.0385  -5.4644 
N  -0.5924  1.6822  -2.0733 
N  0.8791000000000002  -0.028499999999999998  -1.7548000000000001 
N  5.143400000000001  -2.4786  -4.3715 
C  0.4348000000000001  0.9552  -2.5306 
C  2.3029  -0.2494  -3.5884 
C  3.3554000000000004  -0.8268  -4.2736 
C  4.0154  -1.871  -3.6629 
C  3.6550000000000002  -2.3539  -2.4225000000000003 
C  2.5965999999999996  -1.7837  -1.7533 
C  1.9225000000000003  -0.7252  -2.3275 
C  -0.3963000000000001  4.3337  -2.0572 
C  0.8389999999999995  4.7578  -2.4561 
C  1.4740000000000002  5.8359000000000005  -1.8132000000000001 
C  2.7472000000000003  6.3187999999999995  -2.2092 
C  3.3144  7.380800000000001  -1.5911 
C  2.6524  8.017  -0.5275000000000003 
C  1.4486999999999997  7.5679  -0.11690000000000023 
C  0.8086000000000002  6.4719999999999995  -0.7379000000000002 
C  -0.4567999999999999  6.003399999999999  -0.3492000000000002 
C  -1.0516999999999999  4.969900000000001  -0.9819 
H  3.6106999999999996  -0.5221  -5.1152 
H  4.1249  -3.0596  -2.0397 
H  2.3376  -2.108  -0.9205000000000001 
H  1.2670000000000003  4.3284  -3.1618000000000004 
H  3.2004  5.898300000000001  -2.9046000000000003 
H  4.1455  7.6891  -1.8702 
H  3.0431999999999997  8.7494  -0.10820000000000007 
H  1.0278999999999998  7.991999999999999  0.5960999999999999 
H  -0.8955000000000002  6.4132  0.36080000000000023 
H  -1.8931  4.679399999999999  -0.7116000000000002 
