40
unq_CSD-ITUDIN-01-a
Si  3.0763000000000007  -0.11210000000000031  0.6501999999999999 
H  2.1795999999999998  -1.2058000000000002  0.8772000000000002 
N  1.9903000000000004  1.0466000000000002  -0.006299999999999528 
C  3.8596999999999992  0.3357999999999999  2.2758000000000003 
H  4.391699999999999  1.1516999999999995  2.168100000000001 
H  4.4403999999999995  -0.3963000000000001  2.5711999999999993 
H  3.1598999999999995  0.4878999999999998  2.944699999999999 
C  4.4697000000000005  -0.7292000000000001  -0.4074000000000009 
H  4.1071  -1.1274000000000002  -1.2254000000000005 
H  4.979500000000001  -1.4052000000000002  0.08709999999999951 
H  5.058699999999999  0.018199999999999772  -0.6399000000000008 
C  3.2017999999999995  2.5786000000000002  -1.5189000000000004 
C  3.266799999999999  1.5317000000000003  -2.6069000000000004 
H  3.0598  0.6480999999999999  -2.1859 
C  2.2015000000000002  1.7958000000000003  -3.6609 
H  1.314799999999999  1.7533999999999996  -3.2468000000000004 
H  2.2655000000000003  1.1179000000000001  -4.3663 
H  2.3396999999999997  2.6847  -4.0488 
C  4.6529  1.4247999999999998  -3.2362 
H  4.845999999999999  2.2415  -3.7430000000000003 
H  4.6801  0.6526999999999998  -3.8396 
H  5.324699999999999  1.3117999999999994  -2.5316 
C  3.7177  3.8440999999999996  -1.7784999999999993 
H  4.1354  4.013299999999999  -2.6148 
C  3.6353  4.8611  -0.8465000000000007 
H  3.9956000000000005  5.719099999999999  -1.0368999999999993 
C  3.0276000000000005  4.6149000000000004  0.35549999999999926 
H  2.9746999999999995  5.313599999999999  0.9969999999999999 
C  2.4852999999999996  3.3734999999999995  0.6648999999999994 
C  1.7923999999999998  3.1897999999999995  1.9959000000000007 
H  1.6452  2.2097  2.128399999999999 
C  2.637199999999999  3.6976  3.1768 
H  3.5238000000000005  3.2840000000000003  3.1468000000000007 
H  2.1942999999999993  3.4621  4.0196000000000005 
H  2.7276  4.672000000000001  3.1182 
C  0.43039999999999967  3.8620999999999994  1.9867000000000008 
H  0.54  4.8202  1.8086000000000002 
H  -0.0018000000000002458  3.7388999999999997  2.8566000000000003 
H  -0.12650000000000006  3.4626999999999994  1.2851999999999997 
C  2.5542000000000007  2.3276999999999997  -0.28940000000000055 
