22
unq_CSD-ITUFEL-01-a
C  4.158199999999999  -0.7558999999999996  1.6669 
H  4.295399999999999  -1.5337999999999998  2.2479000000000013 
H  4.917  -0.14290000000000003  1.7567000000000004 
H  4.085399999999998  -1.0515999999999996  0.7359000000000009 
C  2.7605000000000004  0.6391  3.9502000000000024 
H  1.9731000000000005  1.1574  4.218600000000002 
H  3.5655  1.1883  4.0549 
H  2.8336000000000006  -0.15829999999999966  4.5157000000000025 
C  0.6121999999999996  -1.6399  2.7233 
C  -0.7582000000000004  -1.7593999999999999  2.9749 
H  -1.357000000000001  -1.1536  2.5551000000000013 
C  -1.2715999999999994  -2.7319999999999998  3.814600000000002 
H  -2.2109000000000005  -2.7824999999999998  3.951800000000002 
C  -0.4429999999999996  -3.6262999999999996  4.453700000000001 
H  -0.7966999999999995  -4.2919  5.033200000000001 
C  0.9171999999999993  -3.5294999999999996  4.227499999999999 
H  1.5056999999999992  -4.1373999999999995  4.659200000000002 
C  1.437899999999999  -2.562  3.3824000000000005 
H  2.3771000000000004  -2.5229  3.2464000000000013 
N  1.0940999999999992  -0.6637999999999993  1.8472000000000008 
Si  2.5854  0.12300000000000022  2.1660000000000004 
H  2.5306999999999995  1.2697000000000003  1.3504000000000005 
