23
unq_CSD-SOKTOD-01-b
F  2.6089  2.1185000000000005  1.4270999999999994 
F  4.0008  4.3445  0.904399999999999 
F  5.2866  4.648  -1.471 
F  5.1614  2.671  -3.331800000000001 
F  3.7490000000000006  0.4418000000000002  -2.8381000000000007 
F  4.6518  -0.4447000000000001  1.0681999999999992 
F  6.0685  -2.7043  0.8835999999999995 
F  5.270300000000001  -4.7006  -0.7801000000000009 
F  3.0449  -4.3601  -2.3215000000000003 
F  1.6988000000000003  -2.0555  -2.2551000000000005 
N  2.3381  0.017900000000000027  -0.4710000000000001 
C  3.0903  1.1902000000000004  -0.6930000000000014 
C  3.2054  2.2454000000000005  0.2176999999999989 
C  3.9061000000000003  3.3712000000000004  -0.025000000000000355 
C  4.5870999999999995  3.5334  -1.2220000000000013 
C  4.5009  2.5232000000000006  -2.1555 
C  3.7964  1.3893999999999997  -1.8817000000000004 
C  3.1047000000000002  -1.1544999999999999  -0.5810000000000013 
C  4.245699999999999  -1.3889999999999998  0.19489999999999874 
C  4.962400000000001  -2.5518  0.13260000000000005 
C  4.5672999999999995  -3.5570999999999997  -0.7157999999999998 
C  3.4440999999999997  -3.3708  -1.4896000000000011 
C  2.7514000000000003  -2.1984  -1.4274000000000004 
