17
unq_CSD-IWUYII-01-b
N  1.7262999999999997  1.1389  0.9682000000000004 
N  2.9341000000000004  2.8434000000000004  1.8110000000000008 
N  3.7684  1.8215  1.4505999999999997 
N  5.984299999999999  2.7318000000000002  0.6418999999999997 
N  6.4765  2.2167  -0.5301999999999998 
N  6.701699999999999  4.470599999999999  -0.5144000000000002 
C  1.7410999999999999  2.3893  1.4947999999999997 
H  0.9499  2.8981999999999997  1.6239999999999997 
C  3.0212  0.8350999999999997  0.9546999999999999 
H  3.3714999999999997  0.013399999999999856  0.6296999999999997 
C  6.132899999999999  4.045299999999999  0.6071 
H  5.8612  4.6236999999999995  1.3097000000000003 
C  6.884  3.3146999999999998  -1.1641000000000004 
H  7.2791999999999994  3.2792999999999997  -2.0258000000000003 
B  5.302999999999999  1.8786999999999998  1.7289000000000003 
H  5.520299999999999  2.4174  2.7100999999999997 
H  5.7125  0.8914  1.6752999999999991 
