13
unq_CSD-IXOCIH-01-a
N  0.5001000000000002  1.4083999999999994  4.0215 
C  0.5016000000000003  1.3873999999999995  2.6941999999999986 
H  0.8697000000000004  2.0824  2.197099999999999 
N  -0.06340000000000012  0.3165999999999993  2.1004999999999985 
C  -0.5091999999999999  -0.42440000000000033  3.1308999999999987 
N  -1.1518000000000002  -1.5714000000000006  3.1256999999999984 
C  -1.4882  -2.0470000000000006  4.351199999999999 
H  -1.9921  -2.8287000000000004  4.3788 
C  -1.1556000000000002  -1.4623  5.543799999999999 
H  -1.4007  -1.8722000000000003  6.343 
C  -0.44200000000000017  -0.27200000000000024  5.581799999999999 
O  -0.04830000000000023  0.38099999999999934  6.5863 
N  -0.14939999999999998  0.22469999999999946  4.2942 
