29
unq_CSD-JINPAY-01-a
N  -0.23399999999999999  2.173  -0.07929999999999993 
P  -0.655899999999999  4.4778  -1.5218999999999998 
C  -0.15369999999999884  2.8598  -1.2521 
H  0.20030000000000037  2.3522  -1.9800999999999997 
C  -0.8189999999999991  2.9339999999999997  1.0271000000000003 
H  -1.152099999999999  2.2917  1.7026 
H  -1.6015999999999995  3.4311000000000003  0.6800000000000002 
C  -0.2129999999999992  4.713100000000001  -3.2824999999999998 
C  0.9809999999999999  4.2833000000000006  -3.8611999999999997 
H  1.5838999999999999  3.7563  -3.3487999999999998 
C  1.3056  4.6103000000000005  -5.1696 
H  2.1159  4.2903  -5.5501000000000005 
C  0.4559999999999995  5.4001  -5.922499999999999 
H  0.6853999999999996  5.6351  -6.8139 
C  -0.7241  5.8434  -5.3698999999999995 
H  -1.3123000000000005  6.3833  -5.884399999999999 
C  -1.0611999999999995  5.5079  -4.0652 
H  -1.8788  5.8219  -3.6969 
C  0.10069999999999979  3.9228  1.7235 
C  1.4246999999999996  4.1112  1.3641999999999999 
H  1.7876000000000012  3.6289000000000002  0.6305999999999998 
C  2.230600000000001  5.003900000000001  2.0722 
H  3.137500000000001  5.1264  1.8193000000000006 
C  1.7088999999999999  5.714300000000001  3.1479000000000004 
H  2.257299999999999  6.3218000000000005  3.6309 
C  0.3893000000000004  5.5311  3.5117 
H  0.02940000000000076  6.0109  4.247999999999999 
C  -0.4125999999999994  4.6444  2.8010000000000006 
H  -1.3215000000000003  4.528700000000001  3.0534000000000003 
