35
unq_CSD-FASBAE-01-d
O  -5.3203  -1.950000000000001  5.564400000000001 
N  -1.7403000000000004  -1.0006000000000004  0.3651 
N  -1.7302999999999997  -1.5574000000000012  -1.7297999999999991 
N  -2.316  -1.6945000000000014  -0.5968999999999998 
O  -4.4662  -5.8203000000000005  -5.661499999999999 
C  -1.8139000000000003  -0.43790000000000084  2.6981 
H  -1.0125000000000002  0.02269999999999861  2.597800000000001 
C  -3.3484  -3.922600000000001  -4.817699999999999 
C  -2.4017999999999997  -1.0672000000000015  1.5935000000000006 
C  -3.6284  -1.7393  1.7598000000000003 
H  -4.0407  -2.1450000000000014  1.0310000000000006 
C  -3.6256000000000004  -1.1897000000000002  4.1188 
C  -2.311  -2.387500000000001  -2.718399999999999 
C  -4.2707  -1.3341000000000012  5.451300000000002 
C  -3.8982  -4.774400000000001  -5.910399999999999 
C  -3.5243  -4.3237000000000005  -3.4890999999999996 
H  -3.9888000000000003  -5.107200000000001  -3.3046999999999995 
C  -4.2167  -1.7960000000000012  3.0054000000000016 
H  -5.0238  -2.2467000000000006  3.1082 
C  -3.7515  -4.299500000000001  -7.329699999999999 
H  -4.1497  -4.940100000000001  -7.924299999999999 
H  -2.8193  -4.203800000000001  -7.540899999999999 
H  -4.1917  -3.4529000000000005  -7.430299999999999 
C  -3.0176  -3.569700000000001  -2.446299999999999 
H  -3.1441  -3.845300000000001  -1.5673999999999992 
C  -2.6441  -2.7459000000000007  -5.0836 
H  -2.5323  -2.462300000000001  -5.961899999999999 
C  -3.5834  -0.7397000000000009  6.6468000000000025 
H  -4.1082  -0.9049000000000014  7.433 
H  -3.4859  0.20679999999999943  6.5214 
H  -2.7167000000000003  -1.139800000000001  6.749300000000002 
C  -2.1116  -2.0002000000000013  -4.043399999999999 
H  -1.6166  -1.234300000000001  -4.231399999999999 
C  -2.4249  -0.5021000000000004  3.9442000000000004 
H  -2.0280000000000005  -0.08140000000000036  4.6722 
