69
unq_CSD-FEGVUK-01-a
N  -0.6267000000000014  -1.575400000000002  0.8412 
H  -0.04100000000000037  -2.1064000000000007  1.1761 
C  -1.8981000000000012  -2.1240000000000023  0.8524 
C  -2.139000000000001  -3.436300000000003  1.3464 
C  -3.4396000000000004  -3.942800000000002  1.351 
H  -3.5965000000000007  -4.815700000000001  1.69 
C  -4.510300000000001  -3.197400000000002  0.8698 
H  -5.388700000000001  -3.5592000000000006  0.8742 
C  -4.276600000000001  -1.9170000000000016  0.3821 
H  -5.004100000000001  -1.4063000000000017  0.046 
C  -2.995800000000001  -1.365000000000002  0.3759 
C  -1.0002000000000013  -4.241700000000002  1.9078 
C  -0.5149000000000008  -3.943200000000001  3.1985 
C  0.5604999999999993  -4.667600000000002  3.7158 
H  0.9000999999999983  -4.453500000000002  4.5763 
C  1.1357999999999997  -5.689800000000002  2.9927 
H  1.865499999999999  -6.177400000000002  3.3554 
C  0.6452999999999989  -6.002200000000002  1.735 
H  1.0363999999999987  -6.719700000000001  1.2501 
C  -0.41100000000000136  -5.289200000000001  1.1635 
C  -1.1948000000000008  -2.8999000000000024  4.0807 
H  -1.8823000000000008  -2.430100000000003  3.5259 
C  -0.24120000000000097  -1.8536000000000001  4.6207 
H  0.4225999999999992  -2.2844000000000015  5.1991 
H  -0.7432000000000016  -1.1898000000000017  5.1374 
H  0.2140999999999984  -1.410300000000003  3.8749 
C  -1.9189000000000007  -3.6021  5.2317 
H  -1.2617000000000012  -4.036700000000003  5.8141 
H  -2.5313000000000017  -4.275400000000001  4.8692 
H  -2.4275  -2.942  5.7479 
C  -0.8869000000000007  -5.605600000000003  -0.2541 
H  -1.8683000000000014  -5.4166000000000025  -0.2963 
C  -0.6735000000000007  -7.0683000000000025  -0.6595 
H  0.28699999999999903  -7.255900000000002  -0.7092 
H  -1.0835000000000008  -7.2276000000000025  -1.5352 
H  -1.0873000000000008  -7.656500000000001  0.0067 
C  -0.1911000000000005  -4.698500000000001  -1.2701 
H  -0.3003  -3.7615000000000016  -1.001 
H  -0.5898000000000003  -4.833900000000002  -2.1546 
H  0.7628999999999984  -4.9189000000000025  -1.3051 
C  -2.7958000000000016  0.05969999999999942  -0.0797 
C  -2.7440000000000015  1.0984999999999978  0.8953 
C  -2.6676  2.4239999999999995  0.461 
H  -2.6544000000000008  3.1240999999999985  1.1031 
C  -2.6105  2.7379  -0.8861 
H  -2.5454000000000008  3.644099999999998  -1.1603 
C  -2.6493  1.727999999999998  -1.8359 
H  -2.5996000000000006  1.9525999999999968  -2.7572 
C  -2.7606  0.3819999999999979  -1.463 
C  -2.8367000000000004  0.7761999999999993  2.383 
H  -2.3658  -0.09310000000000329  2.5373 
C  -4.297500000000001  0.6013999999999982  2.816 
H  -4.780900000000001  1.4426999999999985  2.6832 
H  -4.3302000000000005  0.3520999999999965  3.7627 
H  -4.7151000000000005  -0.10320000000000107  2.2781 
C  -2.1792000000000016  1.8337999999999965  3.2825 
H  -1.2802000000000007  2.0334999999999965  2.948 
H  -2.1186000000000007  1.4911999999999992  4.1992 
H  -2.7196000000000016  2.650699999999997  3.2746 
C  -2.8320000000000007  -0.7151000000000032  -2.5231 
H  -3.4986000000000006  -1.3941000000000017  -2.213 
C  -1.4781000000000013  -1.416800000000002  -2.6475 
H  -0.8048000000000002  -0.7750000000000021  -2.9547 
H  -1.5483000000000011  -2.1509  -3.2936 
H  -1.2140000000000004  -1.7745000000000033  -1.7742 
C  -3.2845000000000004  -0.21450000000000102  -3.9046 
H  -4.103000000000001  0.31569999999999965  -3.8076 
H  -3.459200000000001  -0.981300000000001  -4.4888 
H  -2.5795000000000012  0.34199999999999875  -4.2969 
