29
unq_CSD-SOKVEV-01-a
N  0.5647000000000002  1.2834000000000003  -1.9502000000000002 
C  -0.47799999999999976  1.805600000000001  -2.7596000000000003 
C  -1.5154999999999994  0.9958  -3.1972 
H  -1.4726999999999997  0.08070000000000022  -3.0381 
C  -2.6197999999999997  1.5099  -3.8665000000000003 
H  -3.3089999999999997  0.9468000000000005  -4.132 
C  -2.686  2.8601  -4.1341 
H  -3.4286  3.214200000000001  -4.5688 
C  -1.6520000000000001  3.6834999999999996  -3.7556000000000003 
H  -1.6861999999999995  4.5901000000000005  -3.9594000000000005 
C  -0.5525000000000002  3.173700000000001  -3.0693 
H  0.13480000000000025  3.7432000000000007  -2.8114000000000003 
C  1.8584999999999994  1.5511  -2.3790000000000004 
C  2.9130000000000003  1.6370000000000005  -1.4512999999999998 
H  2.7317  1.5675  -0.5424000000000007 
C  4.2241  1.8256000000000006  -1.8797000000000006 
C  4.531000000000001  1.9515000000000002  -3.217 
H  5.4086  2.0794000000000006  -3.4977 
C  3.4997000000000007  1.8853  -4.1258 
C  2.1842000000000006  1.6891000000000007  -3.7327000000000004 
H  1.5140000000000002  1.6486  -4.3754 
C  5.339600000000001  1.9242  -0.8372999999999999 
F  4.903499999999999  2.3289999999999997  0.32899999999999974 
F  6.2361  2.7684000000000006  -1.2849000000000004 
F  5.882200000000001  0.7379000000000007  -0.7130000000000001 
C  3.795300000000001  2.0111999999999997  -5.6211 
F  5.0245  1.9791999999999996  -5.9789 
F  3.3576999999999995  3.320900000000001  -5.964300000000001 
F  3.0554000000000006  1.2433000000000005  -6.3719 
