25
unq_CSD-SOMHUZ-01-a
N  1.1616999999999997  1.0204999999999997  -1.6637000000000004 
Si  2.6249000000000002  0.3677999999999999  -2.4045000000000005 
C  0.7814000000000005  2.2380999999999998  -2.2913999999999994 
C  1.2222000000000008  3.4762  -1.8309999999999995 
C  0.9104000000000001  4.666499999999999  -2.4793000000000003 
C  0.13090000000000046  4.649900000000001  -3.6013 
C  -0.3389999999999995  3.4548  -4.0899 
C  -0.006099999999999994  2.2669  -3.4452999999999996 
C  4.006  1.6077  -2.3157999999999994 
H  3.815100000000001  2.3412  -2.905900000000001 
H  4.827999999999999  1.1894  -2.5808 
H  4.086600000000001  1.9328999999999996  -1.4155999999999995 
C  2.3782999999999994  -0.04970000000000008  -4.2044999999999995 
H  1.678700000000001  -0.7010000000000001  -4.2890999999999995 
H  3.1930999999999994  -0.40649999999999986  -4.5654 
H  2.1358999999999995  0.7443  -4.6875 
C  3.0867000000000004  -1.145  -1.4326000000000008 
H  3.5123999999999995  -0.8818000000000001  -0.6132000000000009 
H  3.6906  -1.6847  -1.9474999999999998 
H  2.2955000000000005  -1.6512  -1.2332999999999998 
F  1.9974000000000007  3.5508  -0.7335000000000012 
F  1.3846000000000007  5.8248999999999995  -2.0000999999999998 
F  -0.18179999999999996  5.795  -4.2326999999999995 
F  -1.0840999999999994  3.4137999999999997  -5.2006 
F  -0.47089999999999943  1.13  -3.9757999999999996 
