42
unq_CSD-RENFIC-01-b
N  -0.5167999999999999  0.7111999999999998  1.7249999999999996 
C  -1.9221000000000004  1.0106000000000002  2.0275 
H  -2.0199000000000007  1.0638000000000005  3.0016999999999996 
H  -2.4674000000000005  0.2561  1.7204999999999995 
C  -2.5064  2.3034  1.4162 
C  -1.6666000000000007  3.5259  1.8010000000000002 
H  -0.7457000000000003  3.3828999999999994  1.5330999999999992 
H  -1.7075000000000005  3.6569000000000003  2.7612999999999985 
H  -2.0146000000000006  4.3124  1.351799999999999 
C  -3.9191000000000003  2.4565  1.9747000000000003 
H  -4.331300000000001  3.2485999999999997  1.5962999999999994 
H  -3.8768000000000002  2.5429999999999993  2.9406 
H  -4.4454  1.6762999999999995  1.7428999999999988 
C  -2.5928000000000004  2.1813000000000002  -0.08950000000000102 
H  -3.1537000000000006  1.4238  -0.32040000000000113 
H  -1.7040000000000006  2.0488  -0.4549000000000003 
H  -2.9764  2.9924999999999997  -0.45889999999999986 
C  0.30100000000000016  0.3886000000000003  2.8915000000000006 
C  -0.16970000000000063  -0.8809000000000005  3.630700000000001 
H  -1.0757000000000003  -0.7359999999999998  3.9732999999999983 
H  -0.20340000000000025  -1.6279000000000003  2.9975999999999985 
C  0.7525999999999993  -1.2471000000000005  4.7895 
H  0.41439999999999877  -2.0629999999999997  5.238199999999999 
C  0.7846999999999991  -0.09149999999999991  5.7834 
H  1.3638999999999992  -0.31869999999999976  6.5397 
H  -0.11739999999999995  0.07699999999999996  6.1263000000000005 
C  1.3142999999999994  1.1576000000000004  5.081699999999998 
H  1.3445999999999998  1.9055  5.729099999999999 
C  0.3843999999999994  1.5366  3.9162999999999997 
H  0.7233  2.3443000000000005  3.4762999999999984 
H  -0.5105000000000004  1.7317999999999998  4.262499999999999 
C  1.725299999999999  0.12409999999999943  2.407899999999998 
H  2.0641999999999996  0.9240999999999993  1.954699999999999 
H  1.7132000000000005  -0.6089000000000002  1.7571999999999992 
C  2.6694999999999993  -0.24080000000000013  3.5594 
H  3.5806000000000004  -0.4028999999999998  3.205400000000001 
C  2.1586  -1.5015999999999998  4.2576 
H  2.1449  -2.2493  3.625 
H  2.755699999999999  -1.7370999999999999  4.997799999999998 
C  2.7051999999999996  0.9047999999999998  4.5532 
H  3.306799999999999  0.6822999999999997  5.295200000000001 
H  3.0452999999999992  1.7120999999999995  4.1159 
