16
unq_CSD-REPZAO-01-c
O  -1.5668000000000002  1.0142  2.4502000000000006 
O  -0.23550000000000004  3.0841  -1.3099000000000007 
O  -1.2365  4.313000000000001  0.21410000000000018 
N  -0.8869000000000002  1.9939  0.5616000000000003 
C  -1.5054000000000003  2.0412  1.7529000000000003 
C  -2.1249  3.2909  2.1791 
C  -2.8923  3.4156  3.3314000000000004 
H  -3.0241000000000002  2.6793  3.8818 
C  -3.4557999999999995  4.6198  3.6580999999999992 
H  -3.9812  4.6942  4.4216 
C  -3.2461999999999995  5.7247  2.8538000000000014 
H  -3.621  6.5439  3.0863999999999994 
C  -2.4835  5.6191  1.7120999999999995 
H  -2.3352999999999997  6.363  1.1759000000000004 
C  -1.9445999999999999  4.3964  1.3765 
C  -0.7465999999999999  3.0766  -0.2179000000000002 
