7
unq_CSD-REQCIB-01-a
N  0.08809999999999985  1.5698999999999996  -3.2125999999999997 
N  0.7911999999999999  0.7824999999999998  -2.3792 
N  2.0734999999999992  1.1208  -2.4135 
N  2.251899999999999  2.1367000000000003  -3.2573 
N  0.5450999999999997  4.2783999999999995  -5.4023 
C  1.0220000000000002  2.3757  -3.7253 
C  0.7454000000000001  3.4246999999999996  -4.664899999999999 
