11
unq_CSD-REYZOK-01-d
N  0.11660000000000004  -2.0498000000000003  -0.23270000000000035 
N  -1.7644000000000002  -5.9739  -1.2483 
N  1.2617000000000003  -5.1467  0.2770999999999999 
N  3.7783999999999995  -7.0191  1.5757000000000003 
N  0.3589000000000002  -8.4959  -0.5045999999999999 
C  0.133  -3.2093  -0.2724000000000002 
C  -0.9094999999999995  -5.3476  -0.8517000000000001 
C  0.18339999999999979  -4.6198  -0.2931999999999997 
C  2.8133  -6.7214  1.0481999999999996 
C  0.8527000000000005  -7.5593  -0.11000000000000032 
C  1.5765000000000002  -6.4168  0.3852000000000002 
