31
unq_CSD-RIGQON-01-d
N  0.22540000000000004  0.40680000000000005  -1.8194 
C  -0.6206999999999999  1.3296  -2.5204000000000004 
C  -1.5856999999999997  1.2091999999999998  -3.6607000000000003 
C  -2.7803999999999998  2.1559999999999997  -3.478999999999999 
C  -2.2735999999999996  3.6298000000000004  -3.3292 
C  -0.8649999999999999  3.7301  -3.279299999999999 
C  -0.26869999999999994  2.8356000000000003  -2.2487999999999992 
C  1.3541  -0.10099999999999998  -2.6402 
C  0.9454  -1.1368  -3.7066999999999997 
C  2.1654  -1.7906  -4.331799999999999 
C  3.097  -0.7565000000000001  -4.946899999999999 
C  3.4810000000000003  0.29469999999999996  -3.9323999999999995 
C  2.2732  0.9400000000000002  -3.3072999999999997 
H  -1.3072  1.3198999999999999  -1.8514 
H  -3.7244  2.0593000000000004  -3.3331999999999997 
H  -2.5730999999999997  1.8756000000000002  -4.3736999999999995 
H  -2.6531  3.9511000000000003  -2.5084 
H  -2.6020999999999996  4.182  -4.0442 
H  0.32130000000000003  3.0966000000000005  -2.9597999999999995 
H  0.1905  2.947  -1.4120000000000008 
H  1.9231000000000003  -0.5765  -2.0311000000000003 
H  0.47730000000000006  -0.6744  -4.4056999999999995 
H  0.34950000000000003  -1.7823  -3.3171999999999997 
H  1.9038  -2.4535  -4.9748 
H  2.6555  -2.2243  -3.6288 
H  2.5989  -0.3154000000000001  -5.6379 
H  3.8722000000000003  -1.1613  -5.3443000000000005 
H  4.0543  0.9576  -4.3238 
H  3.9686000000000003  -0.15180000000000016  -3.237399999999999 
H  2.5300000000000002  1.6083  -2.6682000000000006 
H  1.7686000000000002  1.3661  -4.004199999999999 
