22
unq_CSD-RINLEI-01-a
C  1.6982000000000002  1.5098000000000003  4.0104999999999995 
C  1.4562000000000002  0.7938999999999998  2.8516000000000004 
H  2.0093  0.07830000000000004  2.6383 
C  -0.32479999999999976  2.1535  2.3484000000000007 
H  -1.0311999999999997  2.3741000000000003  1.7847 
C  -0.11439999999999984  2.9165  3.4722 
H  -0.6608  3.6468999999999996  3.6519000000000004 
C  0.9083000000000001  2.5925000000000002  4.323099999999999 
H  1.0649000000000002  3.0907999999999998  5.0926 
C  3.1098  -0.02059999999999995  5.4439 
C  4.2027  0.2879999999999998  6.2185999999999995 
C  2.3476  -1.2896  5.264 
H  1.4065  -1.1038000000000001  5.2923 
H  2.5743  -1.9011  5.9691 
H  2.5721000000000003  -1.6807000000000003  4.417000000000001 
C  4.9998000000000005  -0.5832999999999999  7.1183000000000005 
N  0.4475  1.1033  2.0341999999999993 
N  2.7915  1.1600000000000001  4.862900000000001 
N  3.6161000000000003  2.1696999999999997  5.2671 
N  4.4824  1.6217999999999995  6.0828999999999995 
O  6.0543  -0.0956999999999999  7.5971 
O  4.5525  -1.7175  7.344 
