17
unq_CSD-NAWWAM-01-a
S  2.8766  -0.9078  2.4044 
N  1.131  0.1255  4.1265 
H  1.6449  0.0326  4.8097 
N  0.3543  0.0989  2.0843 
N  -0.6266  0.6447  2.9191 
C  1.404  -0.2081  2.8162 
C  -0.1178  0.6304  4.0985 
C  -0.705  1.0905  5.3524 
C  -0.0826  0.8365  6.5559 
H  0.7194  0.3672  6.5876 
C  -1.8886  1.7933  5.3688 
H  -2.336  1.982  4.5755 
N  -1.8121  1.9708  7.7605 
C  -0.6808  1.2975  7.7145 
H  -0.2524  1.118  8.5209 
C  -2.4041  2.2156  6.5843 
H  -3.2023  2.693  6.5832 
