8
unq_CSD-NETMOR-01-a
Br  -1.0096000000000007  0.0  -3.3177000000000003 
N  -2.8748000000000005  0.0  0.18649999999999997 
N  -1.759500000000001  0.0  -0.6291 
C  -2.2269000000000005  0.0  -1.8803 
C  -3.5717000000000008  0.0  -1.9241000000000001 
H  -4.150500000000001  0.0  -2.6765 
C  -3.8889000000000005  0.0  -0.5476 
H  -4.778200000000001  0.0  -0.2137 
