17
unq_CSD-NICNOF-01-b
C  -0.5011000000000001  -1.9245999999999999  -2.3416000000000015 
C  -1.7983000000000002  -1.4516999999999989  -2.5588000000000015 
H  -2.1934  -0.8892999999999986  -1.903500000000001 
C  -2.5376000000000003  -1.773299999999999  -3.702400000000001 
H  -3.4232000000000005  -1.4472999999999985  -3.816300000000001 
C  -1.9541  -2.5665999999999993  -4.653700000000001 
C  -0.6819000000000001  -3.0775999999999986  -4.5159 
H  -0.30290000000000006  -3.626999999999999  -5.192400000000001 
C  0.033299999999999885  -2.7718999999999987  -3.370800000000001 
C  1.8846999999999998  -4.0825  -4.0883 
H  1.3383999999999998  -4.8908  -4.180300000000001 
H  2.7895000000000003  -4.3294999999999995  -3.8057000000000007 
H  1.9262999999999997  -3.6152999999999995  -4.948300000000001 
N  0.21909999999999985  -1.636899999999999  -1.2203 
H  0.8448  -2.2135999999999996  -0.9966000000000008 
O  1.3034000000000001  -3.2287  -3.1164000000000005 
F  -2.6567  -2.8999999999999986  -5.791100000000001 
