55
unq_CSD-NIJDAO-01-b
P  -2.2564  2.1752000000000002  -0.3105000000000011 
N  -2.0636  -0.801499999999999  -0.5303000000000004 
C  -3.3745000000000003  -0.3609999999999989  -0.33230000000000004 
C  -4.458600000000001  -1.2535999999999987  -0.2597000000000005 
H  -4.3123000000000005  -2.1624999999999996  -0.3935000000000013 
C  -5.7461  -0.8026999999999997  0.00849999999999973 
H  -6.4416  -1.4200999999999997  0.055899999999999395 
C  -6.0247  0.5431000000000008  0.2076999999999991 
C  -4.963  1.4328000000000003  0.10139999999999993 
H  -5.130599999999999  2.3413000000000004  0.21560000000000024 
C  -3.6517  1.0195000000000007  -0.16999999999999993 
C  -7.4398  1.0271000000000008  0.5285999999999991 
H  -7.6715  0.7663000000000011  1.423399999999999 
H  -8.0609  0.6366000000000014  -0.08960000000000079 
H  -7.4761  1.9839000000000002  0.45589999999999975 
C  -2.6788999999999996  3.5314000000000014  0.889899999999999 
H  -3.5114  3.9480000000000004  0.5818999999999992 
C  -2.9185999999999996  3.0221  2.302199999999999 
H  -2.1349  2.563600000000001  2.6144 
H  -3.665  2.418100000000001  2.3026999999999997 
H  -3.1086  3.764000000000001  2.8819 
C  -1.5945  4.6076000000000015  0.8714999999999993 
H  -1.8537  5.332400000000002  1.4467999999999996 
H  -1.4833999999999996  4.934000000000001  -0.024700000000001054 
H  -0.7655000000000003  4.2326000000000015  1.1806 
C  -2.4814  3.0662000000000003  -1.9393000000000002 
H  -1.6814  3.6198000000000015  -2.066300000000001 
C  -2.5117000000000003  2.0898000000000003  -3.088400000000001 
H  -3.2962  1.5406000000000013  -3.020900000000001 
H  -1.729  1.5353000000000012  -3.0585000000000004 
H  -2.5313  2.5729000000000006  -3.9183000000000003 
C  -3.6811  4.0076  -2.0416000000000007 
H  -3.6946  4.416500000000001  -2.9105000000000008 
H  -3.61  4.689200000000001  -1.3702000000000005 
H  -4.4915  3.5099  -1.910400000000001 
C  -1.9013  -2.1605999999999996  -0.9891000000000005 
C  -1.7115999999999998  -3.2113999999999994  -0.07699999999999996 
C  -1.5107999999999997  -4.5047  -0.5734000000000012 
H  -1.3741000000000003  -5.199999999999999  0.02859999999999907 
C  -1.5098000000000003  -4.785299999999999  -1.9293000000000005 
C  -1.7698999999999998  -3.7455999999999996  -2.8111000000000006 
H  -1.8064  -3.926799999999999  -3.722200000000001 
C  -1.9793000000000003  -2.4433999999999996  -2.3753 
C  -1.7588999999999997  -2.9956999999999994  1.4184 
H  -0.8670999999999998  -2.8732999999999995  1.751999999999999 
H  -2.1563999999999997  -3.7612999999999994  1.8389999999999986 
H  -2.2836999999999996  -2.2154999999999996  1.6130999999999993 
C  -1.2412999999999998  -6.164499999999999  -2.461100000000001 
H  -0.30379999999999985  -6.257399999999999  -2.6507000000000005 
H  -1.7449000000000003  -6.3011  -3.2663 
H  -1.5015999999999998  -6.815899999999999  -1.8065000000000007 
C  -2.3136  -1.3763999999999985  -3.3745000000000003 
H  -2.4263000000000003  -1.7733999999999996  -4.2404 
H  -1.6012000000000004  -0.7344999999999988  -3.4079000000000006 
H  -3.1265  -0.9382999999999999  -3.1144000000000007 
