34
unq_CSD-NIMBAN-01-a
C  -3.5495  5.7531  1.9398999999999997 
C  -2.8343  7.7716  2.9641 
H  -3.2699  8.3413  2.3094 
H  -3.4284999999999997  7.670000000000001  3.7246000000000006 
C  -1.5832000000000002  8.357500000000002  3.3819999999999997 
H  -1.1291000000000002  7.752400000000001  3.972200000000001 
H  -1.7523  9.184899999999999  3.8376 
H  -1.0350000000000001  8.522400000000001  2.6106999999999996 
C  -2.3606  1.9945  0.32729999999999926 
C  -1.3976000000000002  2.8852  0.7955000000000005 
H  -0.4969999999999999  2.6555  0.7523999999999997 
C  -1.7669000000000001  4.1028  1.3173999999999992 
H  -1.1184000000000003  4.6961  1.6224000000000007 
C  -3.1178  4.4428  1.391 
C  -4.0549  3.5462  0.9336000000000002 
H  -4.9572  3.7686  0.9892000000000003 
C  -3.7012  2.3405000000000005  0.4025999999999996 
H  -4.3537  1.7545000000000002  0.09229999999999983 
C  -3.0514  -1.7744  -2.1929 
C  -2.5121  -2.8727  -2.8333000000000004 
C  -3.2369000000000003  -3.7737  -3.5759 
H  -2.8236999999999997  -4.5098  -3.9650999999999996 
C  -4.5673  -3.5603  -3.7248 
H  -5.0808  -4.154999999999999  -4.2216 
C  -5.1608  -2.4546  -3.1327999999999996 
H  -6.0745000000000005  -2.3118  -3.2351 
C  -4.4133000000000004  -1.5654  -2.3956 
H  -4.8225  -0.8145  -2.0279 
N  -1.9007  0.7887  -0.21979999999999933 
N  -2.7478  0.06879999999999997  -0.9498999999999995 
N  -2.1899  -0.9632  -1.4198000000000004 
O  -4.6775  6.1418  1.9596 
O  -2.5349000000000004  6.476  2.3847000000000005 
F  -1.1856  -3.0994  -2.6735999999999995 
