41
unq_CSD-NUYHOG-01-a
N  -0.9694000000000003  1.7002000000000002  -0.12989999999999924 
F  -2.1523000000000003  4.3883  -0.5140999999999991 
F  -3.206400000000002  5.0657  -2.8119999999999994 
F  -3.126900000000001  3.4114  -4.9742999999999995 
F  -1.7550000000000026  1.0462  -4.7543 
F  -0.7241  0.29679999999999995  -2.4410000000000007 
C  -1.1628000000000007  2.4690000000000003  1.0740999999999996 
C  -2.397100000000002  2.4578  1.706900000000001 
C  -2.5487  3.2032  2.8823000000000008 
H  -3.3676000000000013  3.2073  3.3253000000000004 
C  -1.503700000000002  3.9222  3.3795 
H  -1.6248000000000005  4.4259  4.151 
C  -0.2883000000000031  3.9181  2.7707999999999995 
H  0.41199999999999903  4.4086  3.1384000000000007 
C  -0.0727000000000011  3.186  1.5999999999999996 
C  1.282  3.1799  0.9204000000000008 
H  1.3290999999999968  2.3522  0.3960000000000008 
C  1.4440999999999988  4.3132  -0.05299999999999905 
H  0.6981000000000002  4.3243  -0.6587999999999994 
H  2.2567999999999984  4.1944  -0.5503 
H  1.4796999999999976  5.1439  0.4260999999999999 
C  2.451599999999999  3.1484  1.8802000000000003 
H  2.3393999999999977  2.4213  2.4964999999999993 
H  2.4909999999999997  3.976  2.3638999999999992 
H  3.267999999999997  3.0265  1.3874999999999993 
C  -3.591800000000001  1.6677  1.187100000000001 
H  -3.2814000000000014  1.1346  0.4260999999999999 
C  -4.178300000000002  0.7132000000000001  2.2012 
H  -3.488900000000001  0.13129999999999997  2.5282 
H  -4.867300000000002  0.18920000000000003  1.7852999999999994 
H  -4.550900000000002  1.2108  2.9320000000000004 
C  -4.701000000000002  2.5807  0.6807999999999996 
H  -4.341900000000001  3.1931000000000003  0.03589999999999982 
H  -5.072200000000002  3.0722  1.4176000000000002 
H  -5.388600000000002  2.0506  0.27089999999999925 
C  -1.4636000000000031  2.2293000000000003  -1.3051999999999992 
C  -2.0659000000000027  3.4733  -1.5145999999999997 
C  -2.620700000000003  3.8510999999999997  -2.7141 
C  -2.561  3.0478  -3.8019999999999996 
C  -1.9148000000000032  1.8658000000000001  -3.6845 
C  -1.3695000000000022  1.4819  -2.4880999999999993 
