7
unq_CSD-OGELUH-01-a
N  -0.1177999999999999  -1.8016999999999999  1.1597 
C  0.2307999999999999  -3.0732  0.47250000000000014 
H  -0.2894000000000001  -3.1578999999999997  -0.3293999999999997 
H  0.04380000000000006  -3.8131  1.0549 
H  1.1646  -3.0703  0.24960000000000004 
N  0.7240000000000002  -1.7647  2.311 
H  0.6280999999999999  -0.9876999999999998  2.7502999999999993 
