16
unq_CSD-OPAGES-01-a
F  -0.16720000000000002  4.6856  4.9054 
F  1.5096999999999998  5.5867  6.7831 
F  2.8678  1.1787999999999998  3.9640000000000004 
F  3.8484999999999996  4.3515999999999995  7.237 
F  4.5009  2.1119  5.8339 
C  3.0337999999999994  3.8825  6.3008 
C  3.364  2.7668999999999997  5.583 
C  1.8393  4.5013000000000005  6.0706 
N  -0.8372  2.7422  3.0303000000000004 
C  0.9968000000000001  4.0291999999999994  5.1007 
C  1.3015  2.9198  4.3248 
N  -0.11119999999999997  1.5613  1.4228 
C  2.5096  2.3125  4.6144 
N  -1.1728  2.1651  1.9039 
C  0.4572999999999998  2.4518  3.2061 
N  0.9389999999999998  1.7010999999999998  2.2272 
