34
unq_CSD-ORIROX-01-a
N  -3.6226000000000003  1.5137  8.296599999999998 
C  -3.3443000000000005  1.8291  6.9546 
C  -3.4413  0.9117000000000001  5.9301 
C  -3.1561000000000003  1.2271  4.650799999999999 
C  -2.7404  2.5281000000000002  4.3394 
C  -2.6292  3.4744  5.358099999999999 
C  -2.9258000000000006  3.1506000000000003  6.633399999999999 
S  -2.4447  2.983  2.6533999999999995 
O  -3.6790000000000003  2.7061  1.92 
O  -2.0561  4.3732  2.6702999999999992 
N  -1.3559999999999999  2.0006  2.0649999999999995 
C  -0.09340000000000082  2.0064  2.5429999999999993 
C  0.46309999999999896  2.8346  3.5225 
C  1.7868999999999993  2.6058  3.8809999999999993 
O  2.3264999999999993  3.4308  4.7939 
C  3.6777999999999995  3.0980000000000003  5.256199999999999 
N  2.5228  1.6254  3.3676999999999992 
C  1.9145000000000003  0.8892000000000001  2.4704999999999995 
O  2.563599999999999  -0.1445  1.9512999999999998 
C  3.856299999999999  -0.47350000000000003  2.5332 
N  0.6916999999999991  1.0151  1.9650999999999996 
H  -3.7178000000000004  0.06169999999999998  6.124 
H  -3.2392000000000003  0.5969  3.9965 
H  -2.3537  4.3373  5.152399999999999 
H  -2.8645000000000005  3.7854000000000005  7.3092 
H  -0.03190000000000026  3.513  3.9318999999999997 
H  3.9604  3.7539000000000002  5.898699999999999 
H  4.286  3.1005000000000003  4.5059 
H  3.6744000000000003  2.2396000000000003  5.6735 
H  4.038399999999999  -1.3948  2.3763999999999994 
H  4.5328  0.06559999999999999  2.1178999999999997 
H  3.831999999999999  -0.2923  3.479399999999999 
H  -3.8428000000000004  0.7299000000000001  8.496400000000001 
H  -3.7549  2.1465  8.860800000000001 
