21
unq_CSD-SOWFOZ-01-f
C  0.5212000000000003  3.7147000000000006  2.4063000000000003 
C  1.8553000000000006  2.9894  2.3194000000000004 
H  1.7109000000000005  2.0826000000000002  2.0100000000000002 
H  2.2698  2.9709000000000003  3.1968 
H  2.4365000000000006  3.455400000000001  1.6978000000000004 
C  0.7456000000000005  5.111500000000001  2.9719 
H  1.3659  5.5946  2.4042 
H  1.1118000000000006  5.0426  3.8679 
H  -0.09940000000000015  5.5867  3.0046000000000004 
C  -0.49129999999999985  2.972200000000001  3.2365 
H  -1.3239999999999998  3.4686000000000003  3.2505 
H  -0.15700000000000003  2.8743  4.1419999999999995 
H  -0.6441999999999997  2.0959000000000003  2.8521000000000005 
C  -0.7817999999999996  3.5175  -1.1949999999999998 
H  -0.9836999999999998  2.761700000000001  -1.7678999999999998 
H  -0.13049999999999962  4.089500000000001  -1.6307999999999998 
H  -1.5927999999999995  4.022  -1.0261 
N  0.043400000000000105  1.7408000000000001  0.23100000000000032 
N  -0.031200000000000117  3.909700000000001  1.0480000000000005 
C  -0.2245999999999997  3.026200000000001  0.09730000000000016 
H  -0.2856999999999994  4.6495  0.8953000000000002 
