14
unq_CSD-RORQAQ-01-d
N  1.2449  0.5367999999999995  -1.5645000000000002 
N  2.4983  0.17999999999999972  -1.5687000000000002 
C  0.927  1.3120000000000003  -2.6362 
C  -0.2939  1.8987999999999996  -3.0703000000000005 
H  -1.1131  1.7702  -2.5864000000000003 
C  -0.23320000000000002  2.6775  -4.2334000000000005 
H  -1.0463  3.0668999999999995  -4.5657000000000005 
C  0.9528000000000001  2.9112  -4.8959 
H  0.9391  3.4871  -5.6644000000000005 
C  2.1501  2.3425000000000002  -4.5034 
H  2.9692  2.5073  -4.9769000000000005 
C  2.1096  1.5111999999999997  -3.3652000000000006 
C  3.0707999999999998  0.7667999999999999  -2.6321000000000003 
H  3.9987  0.6997999999999998  -2.8688000000000002 
