26
unq_CSD-ROYKOI-01-a
O  4.107399999999999  0.9652  -9.3767 
H  4.5729  0.8306999999999999  -10.038400000000001 
N  1.3671  0.5235  -2.7503 
O  0.29819999999999997  2.7333  0.4919000000000002 
C  2.6343  1.2346  -4.6852 
C  3.9386000000000005  0.7368  -7.0413 
O  1.2222  4.4658  -0.5628 
O  5.7836  -0.0514  -8.3025 
C  4.7157  0.49349999999999994  -8.3086 
C  2.1187  1.7552999999999996  -5.8469 
H  1.3489  2.2762  -5.8359000000000005 
N  0.9151  1.0792000000000002  -1.6505 
C  1.2132999999999998  2.3912999999999998  -1.6298 
C  2.7824  1.4825  -7.040100000000001 
H  2.4417  1.8072999999999997  -7.842499999999999 
C  1.9008  2.7014  -2.7818 
C  2.4982  3.9464999999999995  -3.2965 
H  2.0343  4.2202  -4.0904 
H  3.4235  3.7965  -3.5029 
H  2.4268  4.6352  -2.6301 
C  0.8684999999999998  3.245  -0.4657 
C  3.7767000000000004  0.4726  -4.662100000000001 
H  4.0975  0.12080000000000002  -3.8622 
C  4.4413  0.23709999999999998  -5.8566 
H  5.2292  -0.25770000000000004  -5.859 
N  1.9633  1.5238  -3.4322 
