13
unq_CSD-RUSLAT-01-a
F  -1.1756  5.146100000000001  -0.09520000000000017 
C  -0.3883000000000001  2.9738000000000007  -0.07800000000000029 
H  -1.2741  2.693200000000001  -0.11319999999999997 
C  -0.11609999999999987  4.3172999999999995  -0.06640000000000024 
C  1.1709999999999998  4.806900000000001  -0.045399999999999885 
C  2.1708  3.8328000000000007  -0.036599999999999966 
H  3.0639000000000003  4.0906  -0.04610000000000003 
C  1.8501000000000003  2.4997000000000007  -0.014200000000000212 
H  2.5393  1.8773999999999997  0.020399999999999974 
C  1.5091999999999999  6.2834  0.006800000000000139 
N  0.5810999999999997  2.0547000000000004  -0.04070000000000018 
O  0.7172000000000001  7.009399999999999  0.6461999999999999 
O  2.5507  6.6418  -0.5580000000000003 
