38
unq_CSD-SECKET-01-a
S  -0.12119999999999997  -0.3468  -4.4452 
S  1.0716  -3.1713000000000005  -3.2841000000000005 
N  0.7738000000000005  -1.9220000000000006  -2.3286000000000002 
O  0.9775  -2.8058000000000005  -4.680000000000001 
N  -0.2174999999999998  0.1125999999999987  -1.9460000000000002 
N  -0.7651999999999997  1.2380999999999993  -2.5290000000000004 
O  2.2691  -3.804000000000001  -2.8265000000000002 
O  -2.4593999999999996  5.210699999999999  -7.297700000000001 
C  0.18990000000000018  -0.829600000000001  -2.7885000000000004 
C  -1.2891999999999997  2.1881999999999984  -4.711600000000001 
C  -0.7906999999999997  1.138  -3.8186 
C  -1.9331999999999998  3.299199999999999  -4.2173 
H  -2.1041  3.3523999999999994  -3.3047000000000004 
C  -1.4421  -4.184200000000001  -3.6607000000000003 
H  -1.5253999999999999  -3.5551000000000013  -4.3417 
C  -0.26069999999999993  -4.293400000000001  -2.9602000000000004 
C  -2.1092999999999997  4.2531  -6.3996 
C  -1.0820999999999996  2.113299999999999  -6.088500000000001 
H  -0.6638999999999999  1.3663999999999987  -6.4515 
C  -1.4872999999999998  3.1281  -6.913600000000001 
H  -1.3426  3.0619999999999994  -7.8307 
C  -2.3331999999999997  4.3344999999999985  -5.0342 
H  -2.7493999999999996  5.0832  -4.6724000000000006 
C  -2.5029  -5.014400000000001  -3.3462000000000005 
H  -3.3005  -4.933100000000001  -3.8174 
C  -2.9349999999999996  6.4566  -6.7995 
H  -3.0814  7.060199999999998  -7.5323 
H  -2.2851999999999997  6.831899999999999  -6.2015 
H  -3.7613  6.320099999999998  -6.329400000000001 
C  -0.12639999999999985  -5.235900000000001  -1.9831000000000003 
H  0.6753999999999998  -5.321700000000001  -1.5222000000000007 
C  -2.399  -5.9518  -2.3552000000000004 
C  -1.1999  -6.063200000000001  -1.6846000000000005 
H  -1.1086  -6.7049  -1.0186000000000002 
C  -3.5694  -6.840700000000001  -1.9877000000000002 
H  -4.2547999999999995  -6.311900000000001  -1.5729000000000006 
H  -3.2762  -7.5196000000000005  -1.3758 
H  -3.9193  -7.254300000000001  -2.7804 
