55
unq_CSD-SOZKAT-01-a
Si  0.0015999999999998238  -1.5934000000000001  2.5100000000000002 
Si  -1.7769  0.9833000000000003  2.2916000000000003 
N  -0.6639999999999999  -0.2261000000000002  1.7120000000000002 
C  -1.1734  -3.0041  2.8443 
C  1.3174000000000001  -2.2918000000000003  1.3344999999999998 
C  0.9472999999999998  -3.1667  0.3261999999999996 
C  1.8850000000000002  -3.7396000000000003  -0.5177 
C  3.2212  -3.4113  -0.3559000000000001 
C  3.6332  -2.5132000000000003  0.6146999999999996 
C  2.6618999999999997  -1.9728  1.4423999999999997 
C  0.8369  -1.1288  4.1249 
C  1.5318999999999998  0.06499999999999995  4.227399999999999 
C  2.1769000000000003  0.43199999999999994  5.397399999999999 
C  2.1484  -0.41500000000000004  6.491999999999999 
C  1.4858999999999996  -1.6275000000000002  6.400399999999999 
C  0.8420999999999998  -1.9743000000000002  5.2249 
C  -0.9510000000000001  2.2963999999999998  3.3268999999999997 
C  -3.2218999999999998  0.24929999999999986  3.2648999999999995 
C  -3.8091999999999997  0.8980999999999999  4.3406 
C  -4.924300000000001  0.4011  4.995699999999999 
C  -5.4539  -0.8191000000000002  4.6129 
C  -4.8896  -1.4896  3.5399 
C  -3.8037  -0.9460999999999999  2.8738999999999995 
C  -2.5308  1.8829999999999996  0.7871999999999999 
C  -3.825  1.6320999999999999  0.36119999999999974 
C  -4.3743  2.3242999999999996  -0.7063999999999999 
C  -3.6372  3.3122000000000003  -1.3373 
C  -2.3452  3.5755000000000003  -0.9140000000000001 
C  -1.8013  2.8756  0.1509999999999998 
H  -0.9935  -3.3695  3.7124 
H  -2.078  -2.6835  2.8146 
H  -1.0505  -3.6839  2.1784000000000003 
H  0.022299999999999986  -3.3912  0.19680000000000009 
H  1.6251000000000002  -4.359  -1.2025000000000001 
H  3.8691999999999998  -3.8078000000000003  -0.9436 
H  4.559699999999999  -2.2871  0.7170999999999998 
H  2.9362  -1.3487  2.1191 
H  1.5643999999999996  0.6612  3.4751999999999996 
H  2.6344  1.2729000000000004  5.472899999999999 
H  2.6085999999999996  -0.1796000000000002  7.300799999999999 
H  1.4696000000000002  -2.2035  7.168699999999999 
H  0.3952  -2.8214  5.1737 
H  -0.5547  1.8938000000000001  4.103299999999999 
H  -0.27010000000000023  2.7316  2.8092 
H  -1.6066  2.9422  3.6019 
H  -3.4358  1.7296999999999998  4.6479 
H  -5.3416  0.8935  5.7075 
H  -6.193099999999999  -1.2001000000000002  5.0901 
H  -5.2568  -2.332  3.2621999999999995 
H  -3.4535  -1.4169  2.1164 
H  -4.349600000000001  0.9522999999999997  0.7925999999999997 
H  -5.2675  2.1416  -1.0029 
H  -4.0154  3.7954000000000003  -2.076 
H  -1.8378  4.2599  -1.3561 
H  -0.9102000000000001  3.0814999999999997  0.4448000000000003 
