26
unq_CSD-SUTPON-01-a
C  3.0365  0.5756  -1.0109999999999992 
H  2.6212  0.6179  -1.8415 
C  4.3837  0.8713  -0.9249 
H  4.8586  1.1138  -1.6869999999999994 
C  5.016800000000001  0.8038  0.2879000000000005 
H  5.921  1.0069  0.36180000000000057 
C  4.280499999999999  0.4263  1.4078 
C  2.9376999999999995  0.1457  1.2374 
H  2.4456999999999995  -0.117  1.9818000000000007 
C  4.865900000000001  0.305  2.7442 
H  4.328  0.01  3.4433999999999996 
C  6.5508  0.5383  4.321700000000001 
C  5.7627  0.8827  5.419 
H  4.864299999999999  1.0909  5.296500000000001 
C  6.3096000000000005  0.9158  6.6855 
H  5.7818  1.177  7.4059 
C  7.637300000000001  0.5634  6.9011000000000005 
C  8.415099999999999  0.1916  5.808700000000001 
H  9.2973  -0.0732  5.9378 
C  7.8839999999999995  0.2124  4.530400000000001 
H  8.425699999999999  0.0065  3.804000000000001 
C  8.219899999999999  0.6351  8.283999999999999 
N  2.3061999999999996  0.2304  0.05960000000000054 
N  6.0766  0.5878  2.983200000000001 
O  7.558599999999999  1.215  9.166900000000002 
O  9.3676  0.1249  8.487100000000002 
