14
unq_CSD-SUYXUI-01-a
O  0.8051000000000004  -3.2866  -0.42880000000000074 
N  1.5301  -1.3003  0.3973999999999993 
H  2.1480000000000006  -0.9631000000000007  0.8123999999999985 
C  1.6531000000000002  -2.6012000000000004  0.16749999999999865 
C  2.9598000000000004  -3.2532000000000014  0.6262999999999987 
H  3.2969999999999997  -2.7825000000000006  1.428799999999999 
H  2.7847  -4.196300000000001  0.8751999999999995 
C  4.0162  -3.2087000000000003  -0.4687000000000001 
H  3.635600000000001  -3.5904000000000007  -1.3002000000000011 
H  4.249200000000001  -2.264000000000001  -0.6524000000000001 
C  5.2824  -3.9704000000000015  -0.11100000000000065 
H  5.0697  -4.9183  0.014699999999999491 
H  5.660100000000001  -3.606300000000001  0.7157 
H  5.935  -3.8766  -0.8361000000000001 
