35
unq_CSD-SUYYET-01-a
N  -1.6203000000000003  -1.1678000000000002  0.6264000000000003 
C  -2.4008000000000003  -1.7623000000000002  -0.3971 
C  -2.7978000000000005  -1.0531000000000001  -1.5248999999999997 
H  -2.5562000000000005  -0.13780000000000037  -1.6014999999999997 
C  -3.5419  -1.6509000000000003  -2.5482999999999993 
H  -3.8142000000000005  -1.1381000000000001  -3.3001999999999994 
C  -3.8794000000000004  -2.9876  -2.4631 
H  -4.3703  -3.4034  -3.1609999999999996 
C  -3.4978000000000007  -3.7111  -1.3578000000000001 
H  -3.7509000000000006  -4.6231  -1.2881999999999998 
C  -2.7537000000000003  -3.1354  -0.34660000000000046 
H  -2.4756  -3.6647000000000003  0.39140000000000086 
C  -3.3021000000000003  -2.188  2.337300000000001 
C  -3.2715000000000005  -3.4089  3.0387000000000004 
H  -2.4392000000000005  -3.7397  3.3537999999999997 
C  -4.4202  -4.1379  3.2841000000000005 
H  -4.3626000000000005  -4.9772  3.7262000000000004 
C  -5.651300000000001  -3.6526  2.8908000000000005 
H  -6.439500000000001  -4.1599  3.0439000000000007 
C  -5.726100000000001  -2.4262  2.2729 
H  -6.5718000000000005  -2.0556  2.0501000000000005 
C  -4.562100000000001  -1.7281000000000002  1.9753000000000007 
H  -4.629200000000001  -0.9054000000000002  1.5053 
C  -1.1025  -0.9671000000000003  3.2093000000000007 
C  0.2782  -0.7708000000000004  3.1761999999999997 
H  0.7423000000000002  -0.9208000000000003  2.3598999999999997 
C  1.004999999999999  -0.3661000000000003  4.2902000000000005 
H  1.9446999999999992  -0.24470000000000036  4.227500000000001 
C  0.3548999999999989  -0.14000000000000012  5.4876000000000005 
H  0.8419999999999987  0.14349999999999996  6.253500000000001 
C  -1.0047000000000006  -0.3297000000000003  5.559000000000001 
H  -1.4573  -0.16749999999999998  6.377000000000001 
C  -1.7239000000000004  -0.7554000000000003  4.452 
H  -2.657800000000001  -0.9076  4.5356000000000005 
B  -1.9578000000000007  -1.4237000000000002  1.9612999999999996 
