41
unq_CSD-TACYIG-01-a
P  -3.375499999999999  -0.27640000000000065  0.2728999999999999 
N  -1.7807999999999993  -0.14449999999999896  0.32610000000000006 
C  -3.9848999999999988  -0.028100000000000236  2.0387000000000004 
C  -3.019799999999999  -0.7825000000000006  2.9754999999999994 
H  -3.2342999999999993  -0.573599999999999  3.8973999999999993 
H  -2.1072999999999995  -0.5113000000000003  2.7866 
H  -3.110199999999999  -1.7377000000000002  2.8327 
C  -5.426399999999999  -0.5113000000000003  2.2813 
H  -5.668899999999999  -0.3545999999999996  3.2077 
H  -5.486799999999999  -1.4596999999999998  2.0868 
H  -6.032299999999999  -0.022700000000000387  1.7017999999999998 
C  -3.900499999999999  1.4580000000000002  2.4292999999999996 
H  -4.099199999999999  1.5540000000000003  3.3740999999999994 
H  -4.541699999999999  1.966800000000001  1.9082999999999999 
H  -3.005699999999999  1.7881999999999998  2.2512 
C  -3.8093999999999992  -1.9918999999999993  -0.36330000000000007 
C  -5.285599999999999  -2.090299999999999  -0.7956000000000001 
H  -5.488399999999999  -3.0045  -1.0492000000000001 
H  -5.441699999999999  -1.5017999999999994  -1.5505 
H  -5.857899999999999  -1.8269000000000002  -0.05669999999999997 
C  -3.5360999999999994  -3.0653000000000006  0.6990000000000001 
H  -3.6976999999999993  -3.9428  0.32030000000000003 
H  -4.122699999999999  -2.9269999999999996  1.4572 
H  -2.611799999999999  -3.0045  0.99 
C  -2.888699999999999  -2.3484999999999996  -1.5539 
H  -3.097299999999999  -3.241999999999999  -1.8673000000000002 
H  -1.9620999999999995  -2.3138000000000005  -1.2678 
H  -3.0291999999999994  -1.7124000000000006  -2.2724 
C  -4.035899999999999  1.0662000000000003  -0.8704000000000001 
C  -3.751099999999999  0.6819000000000006  -2.3331 
H  -3.9868999999999994  1.422600000000001  -2.914 
H  -4.277899999999999  -0.09689999999999976  -2.5711 
H  -2.8084999999999996  0.4776000000000007  -2.4368 
C  -5.538099999999999  1.3363999999999994  -0.6833 
H  -5.8237999999999985  2.0206999999999997  -1.3099 
H  -5.7006  1.638300000000001  0.22399999999999998 
H  -6.036499999999999  0.5197000000000003  -0.8467 
C  -3.249199999999999  2.3720999999999997  -0.6239 
H  -3.595699999999999  3.0718999999999994  -1.1996 
H  -2.310699999999999  2.2262000000000004  -0.8207 
H  -3.346499999999999  2.6372  0.3042 
