105

Pd  0.0  0.0  0.0 
N  1.81563  -0.02419  0.0 
C  2.50656  1.20773  0.0797 
C  3.99496  1.20195  0.14216 
H  4.56706  2.12116  0.08273 
C  4.62999  0.01201  0.23195 
H  5.71439  -0.02932  0.23273 
C  3.85796  -1.26119  0.33487 
H  4.39297  -2.1975  0.4456 
C  2.50935  -1.22819  0.25244 
C  1.70641  2.25677  0.07649 
C  2.17578  3.68479  0.14931 
H  1.34618  4.36428  0.42961 
H  2.55918  3.99118  -0.84485 
H  2.9633  3.7948  0.92234 
N  0.33874  1.88722  0.0 
C  -0.70417  2.88701  0.05089 
C  -1.10786  3.59834  -1.13297 
C  -2.1868  4.50372  -1.05958 
H  -2.53782  5.02202  -1.92981 
C  -2.83665  4.76886  0.14874 
H  -3.64926  5.45774  0.19229 
C  -2.3921  4.16644  1.29545 
H  -2.88545  4.43778  2.21796 
C  -1.33019  3.25039  1.28608 
C  -0.42769  3.43194  -2.48311 
H  0.45858  2.8158  -2.35107 
C  -1.36905  2.8043  -3.48583 
H  -1.76539  1.98212  -2.99497 
H  -0.84423  2.46551  -4.40442 
H  -2.27165  3.39939  -3.70614 
C  0.06629  4.72628  -3.10342 
H  0.7466  5.25411  -2.41157 
H  -0.79583  5.37212  -3.37299 
H  0.61093  4.47325  -4.04145 
C  -0.88654  2.76548  2.63813 
H  0.00407  2.14185  2.51122 
C  -2.07785  2.05789  3.33484 
H  -1.83557  1.65027  4.32594 
H  -2.43649  1.24411  2.7029 
H  -2.96529  2.68044  3.48805 
C  -0.36528  3.95006  3.46482 
H  0.45145  4.44077  2.89448 
H  0.05982  3.70138  4.44654 
H  -1.18511  4.64233  3.69966 
C  1.59188  -2.34689  0.3244 
C  1.97011  -3.81941  0.14019 
H  1.5419  -4.25962  -0.78314 
H  1.58087  -4.35421  1.03141 
H  3.06582  -3.96384  0.09915 
N  0.24562  -1.86304  0.0 
C  -0.87801  -2.83483  0.00201 
H  -0.6078  -3.77221  -0.52049 
H  -1.73489  -2.43779  -0.55669 
C  -1.36515  -3.24262  1.35754 
H  -2.29483  -3.79255  1.43906 
C  -0.71679  -3.01484  2.47982 
H  0.23958  -2.50196  2.50689 
H  -1.18805  -3.34108  3.38729 
N  -0.71823  -0.06675  -2.65446 
H  -0.65423  -0.04726  -3.67956 
C  0.49292  0.0  -1.88321 
H  1.03953  0.91008  -2.14161 
C  1.52669  -0.9922  -2.54514 
C  2.91659  -0.80346  -2.4199 
H  3.29909  0.06843  -1.95737 
C  3.83929  -1.77208  -2.79077 
H  4.88347  -1.63743  -2.53217 
C  3.41441  -2.90414  -3.46119 
H  4.13894  -3.65709  -3.73957 
C  2.0659  -3.03572  -3.79541 
H  1.7484  -3.88397  -4.38369 
C  1.12381  -2.10163  -3.33057 
H  0.08563  -2.27147  -3.57563 
C  -1.9514  -0.04327  -1.9729 
C  -3.20519  0.07267  -2.63618 
C  -3.31475  0.1728  -4.04535 
H  -2.4605  0.13034  -4.70174 
C  -4.55071  0.39349  -4.64987 
H  -4.61039  0.50168  -5.72656 
C  -5.70157  0.49361  -3.87281 
H  -6.65542  0.6718  -4.3528 
C  -5.62129  0.37955  -2.48153 
H  -6.52767  0.47657  -1.89786 
C  -4.37708  0.182  -1.85393 
C  -4.27897  0.12005  -0.45549 
H  -5.17224  0.18134  0.15415 
C  -3.02478  0.02141  0.16845 
H  -2.99103  -0.02641  1.2298 
C  -1.85292  0.0  -0.59679 
N  0.0  0.0  1.91 
C  -0.11645  -0.20226  4.558 
C  -0.34769  -1.29265  5.37663 
C  -0.73973  -0.3614  3.11811 
C  0.14992  -0.07842  7.41627 
N  0.11979  -0.04143  8.8299 
C  -0.21849  -1.2491  6.74576 
C  0.40253  0.9658  5.19253 
C  0.48547  1.04413  6.61175 
O  0.30668  0.98185  9.43261 
O  -0.12999  -1.03655  9.46491 
H  -0.49375  -2.13155  7.29462 
H  0.7576  1.98532  7.09935 
H  -0.71237  -2.19361  4.98159 
H  0.65863  1.82142  4.63518 
