105

Pd  0.0  0.0  0.0 
C  -0.0029017729013096627  3.1127486379810234  1.5865314973367028 
H  -0.8624788479770717  3.137249884404355  2.0133763297148204 
H  0.3121771905251539  4.01002625804324  1.4524010781858285 
H  0.6160797827415884  2.635801969530335  2.142087767418938 
C  1.5781973888317833  2.348422156916937  -0.6191669773218583 
H  1.5784106362917587  2.171547327813323  -1.5724351973707003 
H  1.9278130927802832  3.2431024116400393  -0.48255983489804344 
C  2.481602587403329  1.3621213848826148  0.06064953783381721 
H  3.3503833699063597  1.3688151861612505  -0.3712530379606134 
H  2.6043907286106935  1.6212130112085996  0.9877847014138643 
C  2.568016935010861  -0.9848057714522277  -0.3224763075298271 
H  3.467021599234468  -0.895631002589105  -0.544743993670682 
C  1.9415688917738374  -2.300234633098517  -0.3568277132136346 
C  2.5743874635944435  -3.455013002801275  -0.7627418076050128 
H  3.474089271774255  -3.43430515035379  -0.9995520295233058 
C  1.8872030820646208  -4.623014834186157  -0.8188670039345888 
H  2.301123350368134  -5.404368246097279  -1.1058815456958007 
C  0.5519335485722017  -4.628332811425658  -0.4364384850647018 
H  0.0602214080595862  -5.416518084919746  -0.45103627666320617 
C  -0.03407352003135955  -3.442754187830584  -0.03644110654695517 
H  -0.9290719384200143  -3.4492316467382227  0.21795530382061692 
N  0.633050122509539  -2.2951480265903283  1.2215972083153754e-14 
N  1.9145664422355968  0.010217537105761232  5.8829307431021555e-15 
S  -0.1476165647451353  2.284930489484567  -1.809890282625591e-14 
S  -2.0220149173324238  0.0  0.022014917332423778 
S  0.022014917332423778  0.0  -2.0220149173324238 
O  -7.074228840340375  0.22545602309284296  -4.675308848155403 
N  -2.5889393236293796  -0.068360491106178  -2.616151101097924 
N  -4.603767435942468  -0.783123657411136  -4.462461937313387 
C  -1.6491980771096495  -0.017751254520542714  -1.6899345201829614 
C  -5.560774233133141  -1.4859886372756301  -5.27893533566203 
C  -6.849939027691029  -0.9396296603732908  -5.385240795685567 
C  -4.895829465814488  -0.7750501613081417  -3.0378767487873684 
H  -4.770200804159873  -1.6856389794926927  -2.6673685254398296 
H  -5.8390194828450355  -0.5125516675856635  -2.891281992512384 
C  -3.9940507447844302  0.17931068110965626  -2.328737784439028 
H  -4.225428568684117  1.1029738608652657  -2.5982436525963406 
H  -4.1448904380917275  0.10217512246218396  -1.3519250477719087 
C  -8.318217801581943  0.8726944783601938  -4.850049130667008 
H  -8.387118876591762  1.619521440588707  -4.2217828572199565 
H  -9.043125419328762  0.2339447739082967  -4.680345946267762 
H  -8.38453282550618  1.2071384502982312  -5.767413576913022 
C  -7.810420572822119  -1.5702478041178711  -6.161495656052164 
H  -8.683952868056934  -1.2019445683253758  -6.222520451721911 
C  -7.5024682805979905  -2.728764189881019  -6.8488401327392605 
H  -8.155977573128053  -3.134181568196569  -7.403704588202599 
C  -6.2480786856669335  -3.306736310912023  -6.734493241921703 
H  -6.04735160940768  -4.120147244624576  -7.18274468226882 
C  -5.2878457775205225  -2.672485216695189  -5.960527453532104 
H  -4.421576241639339  -3.058601679134304  -5.8895723364673715 
C  -3.198313999167209  -1.1483958421038019  -4.71386227173337 
H  -3.0254162867114758  -1.1641220108150283  -5.687353354715251 
H  -3.019859157273292  -2.05465841371198  -4.352671144064416 
C  -2.278818525752871  -0.1339868678046513  -4.03858993612947 
H  -1.336110262317874  -0.4007016722150185  -4.163161735344696 
H  -2.4058914542867176  0.7579818512989756  -4.449724579494024 
S  0.0  0.0  2.23 
C  0.009808157362687364  -0.014882947944807774  4.030408561385338 
C  -1.2206814724616912  -0.04517612695542692  4.735519179799281 
C  -1.163996891449951  0.1246718593652493  6.118876158246399 
C  0.011871660426336916  0.2773678113848044  6.8196394456303775 
C  1.1970106305544093  0.19298272311903045  6.107656223663632 
C  1.2308287700350586  0.026619349911545798  4.714587136540852 
C  -2.6249954602017467  -0.28897422843098924  4.102980090450226 
C  -2.6507928049517155  -1.547186152888748  3.2492497699413683 
C  -3.6987650719633103  -0.5316878008608564  5.19613672726663 
C  -3.10378920242118  0.9119512158123979  3.2928886945075617 
C  -0.008586397424288794  0.5067162342530419  8.342208964173565 
C  -0.6252314744578662  -0.7510196932224446  8.999630545586614 
C  1.3760427988427395  0.6464364428506945  8.933434844996077 
C  -0.8003980791448395  1.6902412389627801  8.6817928329272 
C  2.6553504728691064  -0.12139313368334692  4.080947528518394 
C  3.014887040747876  1.0757838071183856  3.2206334296158126 
C  3.759117348728265  -0.24553687733214494  5.167696296481338 
C  2.7129835444399  -1.4513127403731416  3.2584613105163056 
H  -1.9904299111076518  0.13498252684454778  6.609809925831787 
H  2.0268994595131105  0.2510774949405381  6.586496060202494 
H  -2.0036848876818385  -1.468646247865989  2.54416891874368 
H  -3.525820709363433  -1.6592454896033109  2.8706018971678215 
H  -2.4379158497604614  -2.3076617081566058  3.795771710753029 
H  -3.7392691105213043  0.23027202730530671  5.779582580042603 
H  -3.4662770631392577  -1.3113339798741128  5.70502950703763 
H  -4.554753759319272  -0.6625974612830292  4.781793707623764 
H  -2.4698320873611466  1.1048055898078608  2.6000233492235174 
H  -3.1863405051161795  1.6745424292265012  3.872060330248612 
H  -3.957497927276912  0.7146640783592896  2.901872533075891 
H  -1.512070458280134  -0.8888760914737301  8.659482283450425 
H  -0.6650021057545139  -0.627175810951528  9.951991973674886 
H  -0.08240251240752139  -1.5165684093471123  8.798693413131662 
H  1.899229826746799  -0.1278944907675603  8.712612112754135 
H  1.310494696254314  0.7264895580936153  9.886662700750913 
H  1.7995378305437257  1.4303545636394095  8.574451408019286 
H  -1.6804489655908812  1.6045650101757907  8.308034875036839 
H  -0.3754457400523785  2.4732643194895254  8.323791820551186 
H  -0.8650698092982516  1.7683910686906616  9.635925937599955 
H  2.3531480185124853  1.1870948539287467  2.534387418837658 
H  3.873920321741385  0.9325176873519089  2.816424806411675 
H  3.0447098687708616  1.8649389882266463  3.7668276432968986 
H  3.566036228492494  -0.9956386831535802  5.7351568694834825 
H  3.7827392674566758  0.5567021037684005  5.693814830804495 
H  4.611294186573772  -0.37530594767305575  4.745280014334821 
H  2.046575557089474  -1.429209996491419  2.5675015482229773 
H  2.544925986379612  -2.1953190875548416  3.842471406775058 
H  3.5820865844266554  -1.544789876738883  2.86190560085795 
