51

Ni  0.0  0.0  0.0 
C  2.914794057706301  -0.4319071734416373  -0.0902879539117154 
H  3.619683483314075  -0.8219807256699414  0.484734490448816 
H  3.2501410756246307  -0.4086186815404198  -1.0217906236439473 
C  2.592306858241445  0.9591401262521901  0.37036740120295814 
C  3.4898968162165955  1.679734898628733  1.1381139944001062 
H  4.323224707059069  1.2986527725195525  1.3883303198150292 
C  3.1598307156381074  2.9596498451624824  1.5350083870140847 
H  3.7642647692982387  3.4727295005586796  2.0567742655405543 
C  1.9387380631249163  3.4825471946376925  1.1639573313759914 
H  1.6887245501382309  4.359837739720293  1.4288240201700542 
C  1.0929682038030597  2.7117631162841067  0.40462209604226035 
H  0.2533929705808313  3.0787400216737946  0.15213344546473484 
C  1.2713384771559304  -1.8535553390081487  1.8092645086697534 
H  1.0780479370354077  -1.0126788562477078  2.2944872285009197 
H  0.49694848845365325  -2.456070273952111  1.9428789860559232 
C  2.4737739128546674  -2.4909420275579297  2.434471716110256 
N  3.411322487069819  -1.659239075463673  2.9079379983995812 
C  4.479273989952507  -2.2153076958948033  3.4923798576657177 
H  5.155309812241863  -1.6386430494810749  3.8298230418583956 
C  4.657950466692129  -3.577055795028478  3.634636952974632 
H  5.426520868519533  -3.9233023524526365  4.071775831258012 
C  3.6949767074112145  -4.423428715956293  3.1284125880370124 
H  3.7915325344157327  -5.366111483642802  3.2006474949613954 
C  2.5877680222778547  -3.874585167389983  2.513831684687067 
H  1.912772513612535  -4.434343729728948  2.1509461722043124 
C  1.9082453714652747  -3.0259862821514854  -0.771483307669805 
C  0.9240850316939933  -3.820283431483727  -1.3450573780251345 
H  0.014724540621753768  -3.552057675063542  -1.2967399808509334 
C  1.2603004195197416  -5.004625899913726  -1.9883591116325696 
H  0.5791886774989202  -5.542227139020646  -2.3764671282878416 
C  2.579336348940757  -5.402624637241925  -2.066925783839264 
H  2.80835121770652  -6.206164489265223  -2.5182156530969118 
C  3.563867891151814  -4.629171777334229  -1.488552983742173 
H  4.470442067623564  -4.908586013868957  -1.5342637808945931 
C  3.237077977705645  -3.4459232289937822  -0.8408919185853359 
H  3.9202878120429117  -2.9194749485848255  -0.44376783178209633 
N  1.3938601911597859  1.4619349395578447  2.0414781724916094e-15 
P  1.3938601911597877  -1.4619349395578447  0.0 
Br  -1.5839191898578664  1.5839191898578664  0.0 
C  -1.2937473829822488  -1.2398794889499034  -0.4598005675376139 
C  -1.601562203225019  -1.4938654694550033  -1.7919791134336869 
H  -1.1309417375171225  -1.0428217585005106  -2.480879663633267 
C  -2.60218398542082  -2.411889969420291  -2.121542410022959 
H  -2.8231586547736818  -2.5626138747145775  -3.03270050271447 
C  -3.2683208079706407  -3.09759503004543  -1.143064365570095 
H  -3.9596020908062854  -3.707191723557817  -1.3683280760515548 
C  -2.9347449854640226  -2.896087320001541  0.14198826503765638 
H  -3.3668350933519986  -3.405606940434718  0.8171022443470677 
C  -1.9675509241539992  -1.9516175659140573  0.5112421903797603 
H  -1.7755298364628027  -1.8022912010877177  1.4301324877763764 
