72

Ni  0.0  0.0  0.0 
P  1.4360248692136228  1.4205395365846036  -2.227622983482338e-15 
N  1.4360248692136222  -1.4205395365846032  -4.440892098500626e-16 
N  2.7243969022500485  -1.3204724343751355  -0.496605768739177 
C  1.4719153636897946  -2.329101788292923  0.9809594013907951 
C  3.552072472134571  -2.1575725004943997  0.19397291636446645 
C  2.776802993143802  -2.8004859544879475  1.122136638786051 
H  3.0681090387569703  -3.436237668355303  1.7350344737503756 
C  3.109213073895396  -0.303082268329641  -1.4196953494810247 
C  2.724315438932686  1.030569081181509  -1.2342407228274794 
C  3.9352360158260726  -0.6735353401710928  -2.4760162812851183 
H  4.160758337553743  -1.5679490275611512  -2.597988975819094 
C  4.422431304303071  0.2913277415671245  -3.3504287436760203 
H  4.963954778517873  0.04571719640844618  -4.066628511185884 
C  3.2591525588265147  1.9777774906250727  -2.116442822271308 
H  3.0430174703240485  2.8751783388020824  -2.004017730724893 
C  4.094639089385954  1.613217764082639  -3.144268509358919 
H  4.443488886865317  2.265855389522489  -3.707659349414805 
C  1.2024904129716432  3.2404939999541105  -0.10145643897346213 
H  2.103492636292082  3.6272731679039207  -0.09578909288414739 
C  0.4815128688654482  3.8310504810619754  1.1282912601567872 
H  -0.44824384476140855  3.5519242654317305  1.1292655361659842 
H  0.8967736941143565  3.5026871282745606  1.941613315409088 
C  0.6103790862741048  5.276620760603223  -1.4256745823943584 
H  1.5395905931170923  5.553354617617268  -1.4745712891621725 
H  0.16046081701257098  5.603229262549953  -2.2206610963937026 
C  0.5642370016106166  5.347877876222386  1.0819988077218063 
H  0.0881708495608784  5.718896754209531  1.8421779912369352 
H  1.4923091119357514  5.62123822628602  1.1465239737406407 
C  0.5354191968332332  3.7452101388120305  -1.3887978629073081 
H  0.9886490112556262  3.374672011259781  -2.1627495030946853 
H  -0.3913418879334236  3.461257732270914  -1.4129708350382897 
C  -0.03164838077976628  5.89003032264543  -0.19749915081154457 
H  0.0866009985801024  6.851920836643539  -0.22118508253184926 
H  -0.9841502554501931  5.706962457723309  -0.2092853962782686 
C  2.227894875168862  1.0370159520810116  1.625532799976063 
H  2.6407400379388215  0.1575920621950726  1.497642403638665 
C  1.2480130884332443  0.8399580541551059  2.800235761957907 
H  0.8650639497126063  1.6942962114146383  3.0541206969255037 
H  0.5248709850819446  0.2522373195338796  2.5283518226438115 
C  3.385855096233008  1.9501664146994404  2.0208854261882454 
H  3.993572756647215  2.057209658540154  1.273489748405218 
H  3.0478337887332536  2.82529969890843  2.2680656854035557 
C  4.115155213100514  1.3179717436808533  3.2017559726380993 
H  4.510360662916903  0.47839228159316205  2.92093437575502 
H  4.833529045382206  1.9052853090645447  3.4849163388782745 
C  1.980832630238524  0.23522193250838797  3.9831487859474204 
H  1.3752950361678877  0.17749975168324594  4.739025622480986 
H  2.2682494623320943  -0.6631563647041752  3.7580020566201786 
C  3.1871837902332163  1.0642903636705352  4.373072875008168 
H  2.8876235125669725  1.9155656072356968  4.729427641691061 
H  3.6763549945241327  0.6036089196514478  5.071779623243138 
C  5.036517258076023  -2.232486420353231  -0.04768674535562911 
H  5.211856527096108  -2.8046347971271093  -0.7970212739171672 
H  5.470868810212069  -2.585019624887643  0.732802971974289 
H  5.376351645528375  -1.3532341905962229  -0.23074500267340792 
C  0.28513247971428335  -2.688592307105094  1.7874022655708715 
H  -0.4748583719787507  -2.1911713224707006  1.477490456521529 
H  0.45031166780730847  -2.48119074423951  2.7099770091780697 
H  0.11130248928211883  -3.628208421704172  1.697211348001072 
Br  -1.5839191898578664  1.5839191898578664  0.0 
C  -1.2937473829822488  -1.2398794889499034  -0.459800567 
C  -1.601562203225019  -1.4938654694550033  -1.7919791134 
H  -1.1309417375171225  -1.0428217585005106  -2.480879663 
C  -2.60218398542082  -2.411889969420291  -2.121542410022 
H  -2.8231586547736818  -2.5626138747145775  -3.032700502 
C  -3.2683208079706407  -3.09759503004543  -1.14306436557 
H  -3.9596020908062854  -3.707191723557817  -1.368328076 
C  -2.9347449854640226  -2.896087320001541  0.14198826503 
H  -3.3668350933519986  -3.405606940434718  0.81710224434 
C  -1.9675509241539992  -1.9516175659140573  0.5112421903 
H  -1.7755298364628027  -1.8022912010877177  1.4301324877 
