70

Pd  0.0  0.0  0.0 
P  1.3461586375683956  1.6370573974360227  -1.9012964523823758e-17 
N  1.3461586375683956  -1.6370573974360223  -5.551115123125783e-17 
C  2.6722753762734923  -1.5519264483206916  0.2893821985349578 
C  3.4579536353039817  -2.703242454681831  0.3764368755115118 
H  4.375670822530635  -2.6308478091516134  0.6133351439040595 
C  2.9181012712153476  -3.929303155512232  0.1258160605994097 
H  3.4674086189198476  -4.7056799655071755  0.13306220853807643 
C  1.5453173552237596  -4.0341669680266055  -0.14092019644074602 
H  1.1338484888302525  -4.878779788056967  -0.2817847279211972 
C  0.81795903116598  -2.8708731043034037  -0.19139241699629378 
H  -0.11261361140184012  -2.9350304577135518  -0.3701730952245837 
C  3.3500472361064357  -0.20147344132012335  0.43108989734390674 
H  3.581388510782615  0.1145988209050155  -0.47947215418421535 
H  4.203754377885622  -0.3440774302612766  0.912881634937363 
C  2.603494168923007  0.9325006959993662  1.1383717038182113 
H  3.243324934083958  1.637191561943843  1.4106220030062897 
H  2.1607898415433326  0.5843908002238449  1.9524952257622081 
C  2.4066670469024167  2.3161543684653765  -1.354586131506832 
C  2.499275665968703  1.619051403848891  -2.5811262043938292 
C  3.3740398706826626  2.088689152167392  -3.5543644442433764 
H  3.419510661457978  1.6327984783468565  -4.3875846016506195 
C  4.1837427145421415  3.203897774576949  -3.3544387501736304 
C  4.058593996900932  3.8557178980932374  -2.178165726997463 
H  4.598867954944885  4.624222687216962  -2.038511978915161 
C  3.1924599258504784  3.4809014982767  -1.1637483339120642 
C  1.72013422045738  0.3724511880004675  -2.8963002828540114 
H  1.8995347421289683  0.1003726917317338  -3.8209667117309847 
H  0.7621733607678498  0.549674244109799  -2.7898437204156705 
H  1.9904328729813394  -0.3445568606106517  -2.286782976561053 
C  5.224073344950693  3.6171055558431755  -4.399050356913116 
H  4.932701805413052  4.440866941431798  -4.842841417616906 
H  5.320807472206311  2.903367594162657  -5.063513569348727 
H  6.086261138818768  3.7703205655263057  -3.9575716270600156 
C  3.1686712198551996  4.292239287703175  0.11673832705542647 
H  3.798718929777702  5.038168047997437  0.043342770055692925 
H  3.424469949735994  3.7205848567310484  0.8701199377556976 
H  2.2644244101588225  4.641094407807369  0.26449435004951855 
C  0.35832979347007066  3.02059724371592  0.6805691430877558 
C  -0.5363675559881818  3.6341198371039445  -0.24305650092330727 
C  -1.429839651872453  4.596929331425051  0.2328502982731106 
H  -2.0066272972553767  5.031463820633638  -0.3843945881551601 
C  -1.5037552156672873  4.942195441755242  1.5705587913635948 
C  -0.6198951682617833  4.356902139577395  2.4688822615157164 
H  -0.6537356674554675  4.608412255010652  3.384373639109772 
C  0.32351548207887215  3.3990054723890433  2.053708442720143 
C  -0.5816667272061522  3.282443267362596  -1.70379065380055 
H  -1.3768768056925607  3.6821390239223915  -2.1123476550399807 
H  -0.6172622275087654  2.3078419873470897  -1.803566830066951 
H  0.22201105928144904  3.6256823565234635  -2.1472558194882883 
C  -2.571020437657303  5.921860246124251  2.0584875638409006 
H  -3.323320631611937  5.422144535922972  2.4425061143744164 
H  -2.889130216427623  6.460579454370258  1.3042260154921241 
H  -2.1875597117173475  6.510765831542297  2.7414829321451517 
C  1.1898265162156703  2.836091571848171  3.1403030325790997 
H  0.9690056581088928  1.8916241802823084  3.279157398350451 
H  1.0381680660030972  3.3338735990857638  3.9700381516612926 
H  2.132771468583785  2.9173714281369003  2.880092326102192 
Br  -1.654629867976521  1.654629867976521  0.0 
C  -1.352040782177733  -1.3199206589279684  -0.4819701001757076 
C  -1.6380700204479186  -1.599217458033982  -1.8139382277462257 
H  -1.1579680913617836  -1.159339363685303  -2.503515938957912 
C  -2.63068216563725  -2.52632649780156  -2.142289956238523 
H  -2.8368222554424674  -2.694399528648736  -3.0538898079700485 
C  -3.3101544432602585  -3.1961573187854975  -1.1619874135498987 
H  -3.9960123560788676  -3.811990145619169  -1.3868663427944008 
C  -2.9974710358883443  -2.9701089012107795  0.12423560353005347 
H  -3.438659168087169  -3.468581175155742  0.8017084178296768 
C  -2.0389854250767776  -2.015940632791841  0.4912562833419403 
H  -1.8619130127668426  -1.8492165108145995  1.4101568590026907 
