57

Pd  0.0  0.0  0.0 
C  1.3736865124723412  -2.7323717085757018  0.16218519164390732 
H  0.5081066765048414  -3.080810304905272  -0.014909788957950169 
C  2.3559671223405068  -3.5928376651443745  0.5698541763158002 
H  2.1834986345351055  -4.525157359979606  0.6247301030638579 
C  3.616092472197903  -3.0847414658772685  0.9045314760198196 
H  4.3004456339185495  -3.6578290193568144  1.227999397288362 
C  3.8394018078581738  -1.7324357826847325  0.7548203882135449 
H  4.687065972542895  -1.362708955291351  0.9728048532907696 
C  2.820356113582727  -0.9138896719817049  0.2841121690037271 
C  1.3400869287925177  2.200077354121198  1.6162540386649258 
C  2.0408963136678104  1.7173395218853265  2.733258708037002 
H  2.6471158348658452  0.9891580502051859  2.6566582092123476 
C  1.8142173674212345  2.351749910855989  3.9755700312143456 
H  2.2981347970510058  2.0668313814933037  4.742079746042758 
C  0.8944221019454097  3.387093221161875  4.095560361712808 
H  0.7471024329099119  3.7992074008885894  4.938794699239138 
C  0.19544038307150058  3.813290039713578  2.984607420073726 
H  -0.43525496142271103  4.519880847881061  3.0658141454513674 
C  0.40712251999385196  3.2131307300137824  1.7403214377172906 
H  -0.08679996357776587  3.501002284821272  0.9813918638073088 
C  2.013961111327367  2.6963860262396766  -1.1874728075333882 
C  2.024739298061707  2.3623241631096215  -2.533866045890183 
H  1.7478102239424833  1.4973669765501036  -2.808999419595583 
C  2.437817528268406  3.286359406808343  -3.4790423543808076 
H  2.448929682783114  3.0553731444898156  -4.400839727257369 
C  2.8315296306451128  4.534976924335289  -3.0749005904328417 
H  3.1224483771403975  5.165761144344721  -3.724411483893979 
C  2.813718062626336  4.896074709818602  -1.744399817278681 
H  3.069379085886796  5.77352833000817  -1.4883334087014526 
C  2.4194189831796935  3.9717384729814844  -0.7754303816320397 
H  2.4267065940489063  4.203053805627422  0.1463483757771007 
C  6.61054705508572  1.8734408510458025  -1.3278886195656228 
H  7.423694418962137  2.180373740047693  -1.7118046211465294 
C  6.088832062706599  2.4782259485377347  -0.21841484223759752 
H  6.532951297326135  3.2184602768026886  0.1779690937374488 
C  4.89698132540342  1.9968994346421964  0.32552999596849674 
H  4.519936215980204  2.3791545306602426  1.1102138667268424 
C  4.287283507451883  0.9385339779566664  -0.3289511656244086 
C  5.934898948432745  0.8121443981645261  -1.8735539795417595 
H  6.322241922818616  0.38177474919952104  -2.626262957463302 
N  2.9936291887860014  0.4676786815393178  0.12441064753693104 
N  1.5820488646056414  -1.410397599969597  1.496805887098806e-15 
N  4.7564907743385385  0.33913463835326324  -1.413581988708363 
P  1.5820488646056419  1.410397599969597  -1.727238906327876e-16 
Br  -1.654629867976521  1.654629867976521  0.0 
C  -1.3788582233137676  -1.3788582233137676  0.0 
C  -2.618821778986925  -1.1522995256591737  0.5874691967409313 
H  -2.8106553971707884  -0.30966242518610043  0.9782000501948407 
C  -3.5854032518711887  -2.161278806785389  0.6049610958635797 
H  -4.421117162155692  -2.007227978208148  1.0287619599160838 
C  -3.3399450833386255  -3.3715361338635086  0.016423527177974573 
H  -3.9908757182151104  -4.061238805801311  0.045080339651694 
C  -2.164680252095028  -3.57422256025893  -0.6007549227026177 
H  -2.0132444416912625  -4.3986257169530365  -1.0474288760065327 
C  -1.1561711193052586  -2.601214672555715  -0.5998012209931929 
H  -0.3196784027493984  -2.7832859823079534  -1.0129111498427692 
