61

Pd  0.0  0.0  0.0 
C  1.16066  -4.60202  0.03261 
C  1.53928  2.23526  0.07325 
C  1.70388  -2.24791  0.04779 
C  2.54312  -1.20519  0.08075 
C  1.97042  3.64442  0.12995 
C  -0.27962  -4.23344  -0.02464 
C  2.1197  -3.6693  0.07137 
C  -0.66867  -2.93897  -0.03747 
C  4.04311  -1.27269  0.17089 
N  0.31808  -1.91783  0.0 
N  1.8664  0.02447  0.0 
N  2.40574  1.28136  0.08186 
N  3.29199  3.95764  0.21469 
O  0.21552  1.89336  0.0 
O  1.13741  4.54473  0.0933 
H  1.45229  -5.64879  0.04367 
H  -1.72034  -2.68728  -0.07569 
H  4.00843  3.21632  0.24125 
H  4.47627  -0.2525  0.25506 
H  3.59675  4.93849  0.25063 
H  3.16551  -3.93964  0.11621 
H  -1.02761  -5.02266  -0.05658 
H  4.45782  -1.75735  -0.73619 
H  4.33588  -1.84233  1.07685 
N  -1.99289  0.0  -0.00711 
N  -2.44122  -0.23414  -2.43833 
N  -0.00711  0.0  -1.99289 
C  -2.62054  0.26105  1.31253 
H  -2.08759  0.56578  2.22111 
C  -4.08855  0.47086  1.401 
H  -4.51824  0.70806  2.37174 
C  -4.8411  0.38228  0.32858 
H  -5.90759  0.54147  0.41091 
C  -4.2186  0.12077  -0.98041 
H  -4.87553  0.07357  -1.84022 
C  -2.88259  -0.0429  -1.1279 
C  -1.10699  -0.28791  -2.91628 
C  -0.9751  0.25861  -4.32884 
H  -1.83959  0.31258  -4.98338 
C  0.2099  0.62701  -4.80829 
H  0.3261  0.97938  -5.82994 
C  1.38078  0.57776  -3.94378 
H  2.36099  0.82481  -4.3515 
C  1.2606  0.28535  -2.6527 
H  2.20951  0.3389  -2.15827 
N  0.0  0.0  1.91 
N  -0.06022  0.01495  4.2789 
C  0.5168  -0.68668  3.09343 
C  0.72988  0.20848  6.55595 
H  1.35249  -0.70868  6.64192 
H  1.01225  0.91179  7.37141 
C  0.88367  0.77075  5.13624 
H  0.52014  1.82748  5.16243 
H  1.93262  0.76556  4.79686 
C  -0.71879  -0.21047  6.5694 
H  -1.35424  0.70183  6.63252 
H  -0.98709  -0.89244  7.40799 
C  -0.84614  -0.84264  5.18416 
H  -0.39276  -1.85493  5.2162 
H  -1.91265  -0.91129  4.87727 
