80

Fe  0.0  0.0  0.0 
O  1.29013  -1.29848  0.0 
O  1.64316  -2.13689  -2.75541 
H  1.03285  -2.03843  -2.00119 
N  1.29013  1.29848  0.0 
N  4.00294  0.57739  -3.39882 
C  1.14252  2.70792  0.08064 
H  0.72871  2.97513  1.0739 
C  2.35453  3.52658  -0.22322 
H  2.23866  4.60174  -0.31432 
C  3.54154  2.95673  -0.37599 
H  4.40875  3.57887  -0.58226 
C  3.67107  1.4941  -0.25668 
H  4.6623  1.06657  -0.32526 
C  2.56347  0.718  -0.10041 
C  3.23109  -1.06436  1.39518 
H  2.62239  -0.59035  2.19982 
H  4.26262  -0.65953  1.46103 
H  3.2665  -2.15646  1.59374 
C  2.60314  -0.77405  0.01852 
C  3.42702  -1.48904  -1.09496 
H  4.45504  -1.0614  -1.09197 
H  3.5327  -2.55268  -0.78996 
C  2.88131  -1.47637  -2.56755 
C  3.8484  -2.30485  -3.42047 
H  3.87704  -3.34828  -3.0346 
H  4.879  -1.89434  -3.39785 
H  3.48655  -2.33691  -4.4705 
C  4.03884  1.82916  -3.92218 
H  4.99145  2.2849  -4.15588 
C  2.84989  2.51678  -4.16284 
H  2.87269  3.51407  -4.5814 
C  1.63368  1.90539  -3.85601 
H  0.70444  2.43172  -4.02738 
C  1.61583  0.611  -3.33446 
H  0.66612  0.14878  -3.09922 
C  2.83117  -0.05947  -3.11127 
N  -1.28111  1.36223  0.0 
N  -6.90795  0.20792  1.36795 
N  -1.28111  -1.36223  0.0 
C  -2.481  0.69276  0.16524 
C  -1.73187  2.76532  -0.00055 
C  -1.11217  4.12069  -0.36218 
H  -0.17745  4.28379  -0.86538 
C  -1.7263  5.2488  -0.02005 
H  -1.22189  6.19416  -0.21632 
C  -3.08812  5.24017  0.55911 
H  -3.51497  6.20987  0.79453 
C  -3.79685  4.09594  0.72937 
H  -4.80012  4.17561  1.10388 
C  -3.15877  2.78293  0.42783 
C  -3.56573  1.49783  0.46331 
C  -4.77126  0.83504  0.76798 
C  -6.10194  1.28099  1.1744 
C  -6.20576  -0.9205  1.11676 
C  -4.83694  -0.57283  0.73915 
C  -3.70135  -1.37777  0.42816 
C  -3.67553  -2.73078  0.40879 
H  -4.57093  -3.31066  0.60499 
C  -2.39322  -3.46408  0.14014 
H  -2.39166  -4.54898  0.10947 
C  -1.23607  -2.78295  -0.02758 
H  -0.30307  -3.31052  -0.19334 
C  -2.51095  -0.68778  0.16387 
C  -8.3025  0.27663  1.75247 
H  -8.90255  -0.4742  1.18168 
H  -8.70253  1.26628  1.43869 
C  -8.50318  0.1105  3.2367 
C  -8.33694  -1.13826  3.86374 
H  -8.05838  -2.0131  3.29386 
C  -8.56172  -1.27065  5.2388 
H  -8.45035  -2.23607  5.71634 
C  -8.93839  -0.16011  5.99869 
H  -9.11315  -0.26474  7.06141 
C  -9.09448  1.08499  5.38495 
H  -9.38488  1.94552  5.97325 
C  -8.8858  1.21966  4.01142 
H  -9.0151  2.19247  3.55218 
O  -6.45797  2.43991  1.33252 
O  -6.66269  -2.04722  1.20374 
