144

Pd  0.0  0.0  0.0 
C  -0.65347  3.02873  0.07648 
H  -1.69628  2.76042  0.23033 
C  -0.32736  4.36184  -0.0319 
H  -1.08344  5.12991  0.04625 
C  1.09891  4.69049  -0.24393 
C  1.75697  5.85479  -0.32772 
C  1.34691  7.26831  -0.27072 
H  0.3079  7.54832  -0.13408 
C  2.30984  8.21896  -0.40992 
H  2.03026  9.26619  -0.38676 
C  3.76988  7.88084  -0.59537 
H  4.49269  8.68231  -0.69857 
C  4.20726  6.60819  -0.63687 
H  5.25585  6.35952  -0.76303 
C  3.18452  5.54883  -0.51048 
C  2.07899  3.62109  -0.39885 
C  1.70876  2.34632  -0.31855 
C  2.62561  1.19364  -0.33522 
C  2.86638  -1.23258  0.18439 
H  2.82181  -1.56371  1.23942 
H  3.93155  -1.03002  -0.06321 
C  2.42335  -2.40838  -0.70148 
H  3.12778  -3.25529  -0.58503 
H  2.43162  -2.23699  -1.79315 
C  1.06343  -2.84682  -0.32883 
C  0.54132  -4.1233  -0.49379 
C  1.10647  -5.32044  -0.95221 
H  2.14095  -5.3779  -1.26239 
C  0.27515  -6.45697  -1.0354 
H  0.6727  -7.39568  -1.40033 
C  -1.08086  -6.38061  -0.65205 
H  -1.71084  -7.26019  -0.70835 
C  -1.6266  -5.15805  -0.2285 
H  -2.67286  -5.08108  0.03969 
C  -0.78352  -4.04661  -0.18415 
C  -0.00583  -2.0169  0.0 
N  0.35383  2.03412  0.0 
N  3.37829  4.14075  -0.56239 
H  4.27423  3.64519  -0.65452 
N  2.052  -0.01722  0.0 
N  -1.13165  -2.77977  0.07505 
H  -2.11693  -2.48582  0.21265 
O  3.83125  1.31517  -0.50158 
N  0.47317  0.0  -1.87238 
N  -1.83317  0.0  -0.60762 
C  1.78468  -0.00202  -2.59129 
H  2.78285  -0.20076  -2.18799 
C  1.82273  -0.13136  -4.05124 
H  2.80148  -0.22939  -4.51055 
C  0.71628  -0.13848  -4.76711 
C  -0.58237  -0.03154  -4.08022 
H  -1.46658  -0.02859  -4.702 
C  -0.66628  0.01365  -2.72758 
C  0.81373  -0.29419  -6.25622 
H  -0.20944  -0.30015  -6.67597 
H  1.29614  -1.27182  -6.47934 
C  1.75991  0.7605  -8.39032 
H  2.44405  1.57638  -8.70567 
H  2.20602  -0.21203  -8.69983 
C  0.53955  1.16  -10.57527 
H  1.17087  2.05392  -10.7772 
H  1.02923  0.26485  -11.01562 
C  -0.8452  1.35764  -11.20141 
H  -1.3174  2.26944  -10.7708 
H  -1.47204  0.47587  -10.94636 
C  -0.78961  1.48981  -12.72827 
H  -0.20174  2.39176  -13.01073 
H  -0.29413  0.59135  -13.15729 
C  -2.21558  1.59544  -13.28828 
H  -2.79707  0.69654  -12.98634 
H  -2.71258  2.49758  -12.87014 
C  -2.23126  1.68319  -14.81015 
H  -1.67381  2.57922  -15.15428 
H  -3.28323  1.76101  -15.15946 
H  -1.77859  0.7714  -15.25478 
C  -1.94839  0.05849  -2.02912 
C  -3.28513  0.21408  -2.64433 
H  -3.33854  0.29049  -3.71751 
C  -4.37645  0.26586  -1.86553 
C  -4.22396  0.21866  -0.38891 
H  -5.10712  0.29768  0.2369 
C  -3.01028  0.12899  0.18713 
H  -2.96083  0.17959  1.24957 
C  -5.76321  0.41377  -2.43931 
C  -5.81584  0.43995  -3.9671 
H  -5.25138  1.32511  -4.34311 
H  -5.36181  -0.49671  -4.36493 
C  -7.25179  0.52493  -4.44187 
H  -7.80349  -0.3646  -4.06933 
H  -7.71305  1.44492  -4.02451 
C  -7.30251  0.57317  -5.96969 
H  -6.80777  -0.32868  -6.39732 
H  -6.7571  1.47877  -6.31788 
C  -8.75325  0.63318  -6.44576 
H  -9.27481  -0.30104  -6.13488 
H  -9.25614  1.50091  -5.96715 
C  -8.8306  0.78792  -7.96579 
H  -8.34037  -0.08431  -8.44989 
H  -8.29569  1.71581  -8.2702 
C  -10.29126  0.87869  -8.41848 
H  -10.82134  -0.04371  -8.09257 
H  -10.77827  1.76043  -7.94689 
C  -10.39258  0.99693  -9.94093 
H  -9.89768  0.11582  -10.40183 
H  -9.88199  1.92055  -10.29384 
C  -11.85164  1.02843  -10.38755 
H  -12.39872  0.15475  -9.9726 
H  -11.90201  0.98231  -11.49559 
H  -12.34446  1.96251  -10.04183 
C  1.65204  0.84036  -6.86672 
H  1.21737  1.8235  -6.58111 
H  2.68786  0.80183  -6.4648 
C  0.39877  0.96729  -9.06245 
H  -0.08214  1.87458  -8.63522 
H  -0.25083  0.08835  -8.85976 
C  0.0  0.0  1.95 
N  -0.89588  -0.37667  3.03718 
N  -0.32568  -0.02602  4.25034 
C  0.89974  0.57773  4.05325 
C  1.70719  1.18799  4.97315 
H  1.46381  1.21306  6.02434 
C  2.93362  1.89589  4.53667 
H  3.56481  2.4631  5.22191 
C  3.26332  1.90362  3.25714 
H  4.11928  2.4657  2.87443 
C  2.37898  1.26314  2.25975 
H  2.00775  2.19815  1.89085 
C  1.10709  0.56475  2.64659 
C  -2.02956  -1.26049  2.99751 
H  -2.93381  -0.73771  3.34742 
H  -1.8257  -2.14009  3.64718 
H  -2.18877  -1.64515  2.01596 
C  -0.77226  -0.43466  5.53609 
C  -2.07566  -0.14969  5.94736 
H  -2.7466  0.39831  5.29881 
C  -2.49554  -0.53407  7.22653 
H  -3.49586  -0.30319  7.54871 
C  -1.6111  -1.21644  8.07316 
I  -2.23805  -1.81052  9.98634 
C  -0.31106  -1.50506  7.6519 
H  0.38276  -2.0316  8.29592 
C  0.11046  -1.10379  6.3943 
H  1.12365  -1.32894  6.07122 
