83

Pd  0.0  0.0  0.0 
N  1.5353978857286492  1.4610452876280045  1.8720125496859586e-15 
P  1.5353978857286472  -1.4610452876280045  0.0 
C  2.775245609315002  -1.0513278715636152  -1.2700790689131636 
C  3.176344904198313  -2.0335856989920242  -2.156711081700721 
H  2.9467770503699073  -2.9187462590042306  -1.9903210775313218 
C  3.9194925396943594  -1.7223680975594182  -3.297352833704927 
C  4.169006156630616  -0.3834826799993438  -3.5099733491976566 
H  4.613503797931018  -0.1560028251212091  -4.294564078497338 
C  3.8125618637918723  0.6661698482188414  -2.650635018789927 
C  3.1402637889883334  0.30290915089873716  -1.4547039737885936 
C  4.081597371742732  2.1067248452627654  -3.204258587610313 
C  3.7049901393586726  3.275725176370135  -2.2953313691891104 
H  2.780656702397667  3.2026632761649045  -2.046611775963575 
H  3.846873521930566  4.101893331608954  -2.761922555367375 
H  4.250982506126822  3.2562100181190923  -1.5056104475785936 
C  3.245311645509325  2.246889265034084  -4.487979530622647 
H  2.314475234403537  2.150798013661631  -4.275706340677664 
H  3.5031182612117573  1.5663195295029508  -5.113561982405887 
H  3.3969017122579257  3.1123131370434054  -4.875565280385889 
C  5.5725872752376056  2.261673303682926  -3.5838936135361257 
H  5.7270227036059165  3.147732432693039  -3.920324792772744 
H  5.799020822320578  1.618105586814588  -4.260696873398468 
H  6.11794666681431  2.114868453199324  -2.8076657862240677 
C  4.308160077070641  -2.7945818087054186  -4.303894647550929 
C  5.771881867402624  -2.6420889312521036  -4.702948482056338 
H  6.328789311588961  -2.781637305779911  -3.934510137244926 
H  5.918759819050346  -1.759237016309672  -5.049156589416966 
H  5.988991981660497  -3.290373267829875  -5.376988211771747 
C  3.4719513739710237  -2.577451413989844  -5.569773427905178 
H  2.5400863175043646  -2.6750031505492164  -5.358458815938448 
H  3.719113190822024  -3.225970791194286  -6.232086694933171 
H  3.631363231029768  -1.693772950404309  -5.9115062662807425 
C  4.04527869270654  -4.207334809915287  -3.804043244304598 
H  4.561024105819811  -4.366536329518849  -3.0100208988957675 
H  4.2978028777503  -4.83916639844784  -4.48186724041303 
H  3.1122848809274357  -4.307702800724164  -3.6036049655180604 
C  2.8488594998625136  1.2537969206101742  -0.33348672022339193 
C  3.871038802223583  1.8200243893993795  0.4269137778124604 
C  3.5079127092929037  2.744431162712127  1.4180856943266436 
H  4.1687375629091905  3.1669103460933057  1.918275560729997 
C  2.1875430811348737  3.031023579487788  1.6565306810311937 
H  1.9530202503835445  3.677494341207587  2.283699116220488 
C  1.2269511204008614  2.363452640202616  0.9693940235931575 
H  0.3335147834024852  2.5277770331786726  1.1674747283677338 
C  5.325873698931824  1.4727149361627747  0.2343589102745789 
H  5.4103191282167415  0.8301966528835139  -0.47457242287749346 
H  5.676628678792299  1.1003373277429302  1.0466449380077976 
H  5.816593754578443  2.2666879463240814  0.0068941303160836576 
C  1.0995318111990033  -3.1934245584370538  -0.3154089997847826 
C  1.5314209594603356  -4.226856586715448  0.5144258371210487 
H  2.0054020808851734  -4.031448478960276  1.2897627303206507 
C  1.2578357004631473  -5.54599662728804  0.1857897626897915 
H  1.543712738939502  -6.233349845223123  0.7425239206739079 
C  0.5649784493416936  -5.834124023861379  -0.9544928570638991 
H  0.3781662150289926  -6.7201834745589855  -1.167787720903956 
C  0.1387342095321218  -4.827394696266093  -1.7960614395268497 
H  -0.31924655983878747  -5.033426834728211  -2.5788494202771695 
C  0.39575945158841197  -3.514638810982174  -1.4676670263613156 
H  0.09424002019436006  -2.834377125450455  -2.0244767619886095 
C  2.336407181978509  -1.4642325365376956  1.62773448656891 
C  1.53691370643394  -1.484130749307813  2.75438909810265 
H  0.613996375920715  -1.4098365806607718  2.6695228648682625 
C  2.110210250835114  -1.6139630218638286  4.009653987749706 
H  1.5698452989047003  -1.6384670261566203  4.766912815693534 
C  3.454903753092334  -1.706311343399466  4.135445134086914 
H  3.831109283406473  -1.823206939618304  4.977945412155548 
C  4.275359909766131  -1.6288685830975624  3.0302847322207755 
H  5.200492167252166  -1.6451340850647074  3.1294550887019215 
C  3.7048939621633545  -1.5258367563125153  1.7593925002455353 
H  4.247401962265844  -1.4994410892332204  1.0052140872793203 
Br  -1.654629867976521  1.654629867976521  0.0 
C  -1.352040782177733  -1.3199206589279684  -0.4819701001757076 
C  -1.6380700204479186  -1.599217458033982  -1.8139382277462257 
H  -1.1579680913617836  -1.159339363685303  -2.503515938957912 
C  -2.63068216563725  -2.52632649780156  -2.142289956238523 
H  -2.8368222554424674  -2.694399528648736  -3.0538898079700485 
C  -3.3101544432602585  -3.1961573187854975  -1.1619874135498987 
H  -3.9960123560788676  -3.811990145619169  -1.3868663427944008 
C  -2.9974710358883443  -2.9701089012107795  0.12423560353005347 
H  -3.438659168087169  -3.468581175155742  0.8017084178296768 
C  -2.0389854250767776  -2.015940632791841  0.4912562833419403 
H  -1.8619130127668426  -1.8492165108145995  1.4101568590026907 
