68

Ni  0.0  0.0  0.0 
P  1.412242490686356  -1.4441852884931343  7.60670928649981e-17 
N  1.4122424906863558  1.4441852884931343  -3.80838110147368e-17 
C  2.6125608890490577  1.001642852912135  -0.06100479704147342 
H  3.2608585944546196  1.5445323881033315  0.09563446287052052 
C  2.9259389632375346  -0.41567508496528666  -0.4587051560918686 
C  4.243290163483007  -0.9140504913170453  0.14003364301474222 
H  4.169072643187428  -0.9457281093931406  1.1163340005862268 
H  4.967390412466268  -0.3026232582357964  -0.11167813277061849 
H  4.440538263449195  -1.8106081528003508  -0.2025780273867873 
C  3.052704259526122  -0.38177031845773635  -2.0002329555379377 
H  3.373355581645947  -1.2508066914217049  -2.320030519769496 
H  3.686783311766141  0.31729952254126975  -2.2605811318634634 
H  2.175370069400546  -0.19135415289290755  -2.3965562739641015 
C  1.1936273378853177  2.845175124161037  0.25953411205659394 
C  0.7322471232025201  3.2253958197844796  1.5260041393840948 
C  0.4860957102744372  4.577306153282714  1.7401051484760688 
H  0.18537873248391779  4.859528402219531  2.595905675160669 
C  0.6634726500577898  5.52634702145973  0.7467853451081312 
C  1.1052685605053707  5.1008842467758  -0.5018695395057478 
H  1.2266969579365457  5.744514705696944  -1.1910915912759061 
C  1.3752716540518943  3.7594335614406904  -0.7750352003953863 
C  0.5388102261486583  2.2246461884764392  2.6259975176801036 
H  0.133453383989099  1.4111023763622044  2.260879747248307 
H  -0.049023852872678964  2.6036963833244813  3.313622513827578 
H  1.4059664984852511  2.005983498504369  3.0257550533958217 
C  0.3860638219062995  6.979780307842343  1.0129608588178771 
H  -0.4863430416933605  7.071702151983625  1.44813637388498 
H  0.38082112159217707  7.472670978223509  0.1646361384751171 
H  1.0836305878753714  7.3430563771806545  1.5980908567342162 
C  1.8144580014695377  3.3112784423179153  -2.1497449448309434 
H  2.7647002263319904  3.0755973058931447  -2.1288510217427965 
H  1.6736855303371192  4.0383459961603965  -2.792013341625316 
H  1.2904347151393118  2.52887125814075  -2.4226425145006663 
C  1.588158786478906  -2.8994235683352247  -1.0529159015595129 
C  0.8985955631584622  -2.9021273280474404  -2.261275554447432 
H  0.2581316849663686  -2.2258167377220737  -2.4447016598548164 
C  1.1504088536777728  -3.9004311790057256  -3.204777042458829 
H  0.696700165623575  -3.891789403535887  -4.03925237229243 
C  2.0643348301880526  -4.906222074795552  -2.923759189990245 
H  2.226617014561734  -5.591063859212262  -3.5631524672084405 
C  2.7406373271226663  -4.915178463635029  -1.718668186895851 
H  3.3611625589379868  -5.608614778891304  -1.5305644831461205 
C  2.514266283709304  -3.9173156225700527  -0.7842715092873976 
H  2.987371884624995  -3.9213921424230875  0.03940158871211736 
C  1.6629094295141302  -1.9778552380078323  1.7144128472348115 
C  2.1141394569540553  -1.0430344703702887  2.661740718000876 
H  2.34077637602672  -0.16300095934755113  2.3836162020188416 
C  2.231747137816673  -1.387818767764386  3.991593447318133 
H  2.5321893295742743  -0.7438672246972579  4.621978400813508 
C  1.9120891755965765  -2.667896206393404  4.411295756463903 
H  2.0000394981824865  -2.904475170825655  5.327882388673412 
C  1.464734750748305  -3.6014179024956348  3.4967671557765874 
H  1.2425004242937618  -4.479497149046572  3.7853949107168146 
C  1.3387097612741166  -3.2593346366319618  2.154415092700686 
H  1.0283312343478812  -3.90619225070912  1.530699021772953 
Br  -1.5839191898578664  1.5839191898578664  0.0 
C  -1.29374738  -1.23987949  -0.45980057 
C  -1.6015622  -1.49386547  -1.79197911 
H  -1.13094174  -1.04282176  -2.48087966 
C  -2.60218399  -2.41188997  -2.12154241 
H  -2.82315865  -2.56261387  -3.0327005 
C  -3.26832081  -3.09759503  -1.14306437 
H  -3.95960209  -3.70719172  -1.36832808 
C  -2.93474499  -2.89608732  0.14198827 
H  -3.36683509  -3.40560694  0.81710224 
C  -1.96755092  -1.95161757  0.51124219 
H  -1.77552984  -1.8022912  1.43013249 
