60

Fe  0.0  0.0  0.0 
C  2.51201  0.69858  -0.03244 
C  2.35941  -0.68269  -0.62571 
H  2.14079  -0.60213  -1.71439 
H  3.31681  -1.2445  -0.47713 
C  1.32124  -2.67629  -0.2844 
H  1.42218  -2.87593  -1.37448 
H  0.4003  -3.18312  0.06799 
H  2.16986  -3.17265  0.21993 
C  3.06555  0.63529  1.39879 
H  3.10257  1.65674  1.83556 
H  4.096  0.21757  1.39964 
H  2.42272  0.00132  2.04484 
C  3.43643  1.54771  -0.91668 
H  3.00968  1.64186  -1.93942 
H  4.44335  1.0839  -0.99672 
H  3.5431  2.56997  -0.49605 
O  1.24984  1.2814  0.0 
O  1.24984  -1.2814  0.0 
S  -1.74414  -2.13306  -1.51527 
O  -2.11004  -3.59306  -1.20225 
O  -0.49897  -2.26128  -2.39573 
N  -1.27316  1.36966  0.0 
N  -2.4101  1.29434  0.75742 
N  -1.27316  -1.36966  0.0 
F  0.20219  1.5323  -2.42497 
F  -2.22815  3.84572  1.03935 
C  -1.02883  2.6146  -0.66539 
C  -0.28946  2.66434  -1.8646 
C  -0.06791  3.8888  -2.50396 
H  0.48368  3.91972  -3.4336 
C  -0.56474  5.06981  -1.95487 
H  -0.38419  6.0157  -2.44807 
C  -1.28683  5.04073  -0.7639 
H  -1.66163  5.95967  -0.334 
C  -1.5341  3.82498  -0.12689 
C  -2.92201  0.21275  1.19784 
C  -4.12543  0.32238  2.03185 
H  -4.57059  1.3016  2.19238 
C  -4.66151  -0.76441  2.60366 
H  -5.53775  -0.64244  3.22954 
C  -4.07988  -2.12011  2.40394 
H  -4.539  -2.96233  2.90601 
C  -3.01321  -2.32188  1.61092 
H  -2.61293  -3.32044  1.47195 
C  -2.37525  -1.15326  0.92563 
C  -2.935  -1.23356  -2.34592 
C  -4.28455  -1.5045  -2.12129 
H  -4.57843  -2.28779  -1.44571 
C  -5.21389  -0.72341  -2.77306 
H  -6.26489  -0.92291  -2.60361 
C  -4.79459  0.31617  -3.63302 
C  -3.43  0.56308  -3.83127 
H  -3.08392  1.36005  -4.48105 
C  -2.4959  -0.2226  -3.18781 
H  -1.4428  -0.03088  -3.31957 
C  -5.78931  1.15611  -4.33339 
H  -6.823  0.83656  -4.07961 
H  -5.63276  1.05518  -5.42719 
H  -5.64698  2.2126  -4.02152 
