62

Ni  0.0  0.0  0.0 
P  1.3816794038415714  -1.4734524169446392  1.8044587861071838e-16 
N  1.3816794038415714  1.4734524169446392  -1.8044587861071838e-16 
C  1.9830567475735104  -2.741669112312963  -1.1299236407983524 
C  1.8997542999608572  -2.5167889898268303  -2.4810367384820338 
H  1.5256014115243581  -1.7362693057336247  -2.8179764049175464 
C  2.40529103246946  -3.521051246947005  -3.340145882309777 
H  2.3262153433776045  -3.416504749056406  -4.260877110830581 
C  2.988677718789632  -4.604332978100437  -2.8575377543492055 
H  3.351987749266714  -5.227417927734406  -3.446341819632699 
C  3.065852731930149  -4.823948831506145  -1.5546748589224966 
H  3.454864059372458  -5.606734411641602  -1.2379538102794077 
C  2.5662121087425596  -3.8807520549982173  -0.6543781809069642 
H  2.630918071947491  -4.026486445556461  0.26080250930364435 
C  0.8020986819850243  -2.3164947647768135  1.4921154267059635 
C  -0.04399279672513945  -3.3602067349189615  1.3952291891071522 
H  -0.2714683828780755  -3.680866940546594  0.5513921075379409 
C  -0.5847312574810231  -3.971383173088145  2.512950146451265 
H  -1.169326296580162  -4.688090735446895  2.419179893607138 
C  -0.2626193021866716  -3.527582275631292  3.7195224450197903 
H  -0.6230125414843033  -3.9312755867688365  4.476140739545747 
C  0.6032800715035511  -2.472172398042807  3.8503718429226352 
H  0.8371872003072225  -2.1616374667901264  4.6967454729269456 
C  1.1264401620853173  -1.8738131705163408  2.726019142718432 
H  1.7099732822326101  -1.1540914490650227  2.8173486634788643 
C  2.800817000602631  -0.4803030636493159  0.48284736046536664 
C  4.006120343029101  -1.057904206524889  0.9013176252207777 
H  4.071705320419692  -1.977493064242925  1.0242712892634342 
C  5.097547850504094  -0.2403252598643658  1.127407766324704 
H  5.901680302870634  -0.609333124487135  1.413829247532918 
C  5.0003413405338115  1.0793486655631541  0.9340774920112297 
H  5.753555506029249  1.6098102474992382  1.0621018685450818 
C  3.8133339727369306  1.6764098396350229  0.5519269808094242 
H  3.7661338567810416  2.5987114283201627  0.4467234705893752 
C  2.688788604424402  0.8835299057023519  0.32706812513810896 
C  0.6739614517344621  1.8920390797422966  1.2748043598894996 
H  0.7208057251656416  1.1697375464448114  1.9204604130964842 
H  -0.2614025317202511  2.062267410237087  1.0830405886690124 
C  1.3039857214227126  3.1485001664456878  1.8740380515357011 
H  0.7270674253595063  3.4781950038313  2.580724859017504 
H  2.1533400909615077  2.9078490087141917  2.2778159301123524 
C  1.512093201010309  4.1352416881127745  0.9922873008369392 
H  2.4618045358212273  4.333401589065294  0.9899433327985718 
H  1.0563671414854152  4.925290197051992  1.3221211411154026 
C  1.1333124112769544  3.9472728356307143  -0.2813770834596457 
H  1.5209396592201658  4.657664612088962  -0.8146330263168037 
H  0.16967784425734544  4.050884043732411  -0.32316271257615364 
C  1.4770252980328473  2.658335769757786  -0.9259323035120638 
H  2.382208295135664  2.7121749600076472  -1.270710454428301 
H  0.8827420538532601  2.515921313351295  -1.6786036848557828 
Br  -1.5839191898578664  1.5839191898578664  0.0 
C  -1.2937473829822488  -1.2398794889499034  -0.4598005675376139 
C  -1.601562203225019  -1.4938654694550033  -1.7919791134336869 
H  -1.1309417375171225  -1.0428217585005106  -2.480879663633267 
C  -2.60218398542082  -2.411889969420291  -2.121542410022959 
H  -2.8231586547736818  -2.5626138747145775  -3.03270050271447 
C  -3.2683208079706407  -3.09759503004543  -1.143064365570095 
H  -3.9596020908062854  -3.707191723557817  -1.3683280760515548 
C  -2.9347449854640226  -2.896087320001541  0.14198826503765638 
H  -3.3668350933519986  -3.405606940434718  0.8171022443470677 
C  -1.9675509241539992  -1.9516175659140573  0.5112421903797603 
H  -1.7755298364628027  -1.8022912010877177  1.4301324877763764 
