86

Pd  0.0  0.0  0.0 
P  1.4796516397449866  -1.5174752139656187  1.2646720986388522e-15 
N  1.4796516397449773  1.5174752139656187  -5.514907634557596e-15 
C  2.653205657841193  1.0245508003633381  0.05584898463812492 
C  4.002606218258693  1.6115186808286213  -0.26578034369965653 
C  4.891566702669652  1.5322451982090108  0.9973131057763682 
C  5.248245912039785  0.00981102021502181  1.1377515808424121 
C  4.405537728013154  -0.6154496438589971  0.03072392150579758 
C  2.9225590479785537  -0.41933510290232173  0.42204533848702014 
C  4.5800038655917525  0.4365903073096321  -1.1041149868787898 
C  1.1986331079994688  2.941940038897497  -0.2282701192609324 
C  0.7028525540076686  3.302832585912371  -1.4971605407681396 
C  0.31340167189050505  4.658603013703103  -1.6624729345754503 
C  0.4092718188077604  5.558753538356715  -0.6539694899130559 
C  0.9284346678078373  5.183536141222417  0.5895556610613522 
C  1.3539682860705686  3.843352132756578  0.7951788435595052 
C  0.67509544535574  2.36146915417175  -2.6567809279210977 
C  2.01567558132506  2.4085099027408505  -3.3886809258843327 
C  -0.46668978154328533  2.608898104934501  -3.614295716297564 
C  1.9456556138897192  3.5398679435180025  2.1728547934767812 
C  0.9714439337292545  3.833257859150648  3.3097505537133927 
C  3.2549853522181484  4.331983596503708  2.3594771357186572 
C  1.3968516434381792  -2.8691556737997823  1.3254396799229136 
C  1.867479673757617  -2.2985002904166114  2.6631262054188722 
C  2.289597428935423  -4.0885354092779025  1.0157030770129019 
C  -0.06307590052688661  -3.2505781475727966  1.457210135158606 
C  1.6352426982067976  -2.2350395075888545  -1.719867444614195 
C  2.9928679800912175  -2.9082420782788456  -2.0419846170913054 
C  0.5066772646445574  -3.2338855190758955  -1.9656988655206558 
C  1.4591854924247816  -1.0966911780067599  -2.7315625769687344 
H  3.9967110945452458  2.4635138522168307  -0.6997002043278361 
H  4.390768079830475  1.7984444555559291  1.766990463342735 
H  5.691428173039757  2.0306267421313065  0.8743491480690384 
H  4.960750436986139  -0.31995598381548596  1.9763883644838396 
H  6.175131687211744  -0.12012306911005577  0.9382970942667832 
H  4.651143256661543  -1.4976428867400844  -0.2250873888624018 
H  2.9173178267550846  -0.44518860919944975  1.3721994395739163 
H  5.512655573117732  0.6090371997475929  -1.2234107191470516 
H  4.009937222070634  0.2601028348716985  -1.80251754559192 
H  -0.012968317293752252  4.93267483126718  -2.5127204038318833 
H  0.11782071894121571  6.452812164496975  -0.7912600191230886 
H  0.9892270264067324  5.823371013689732  1.2944535721880117 
H  0.5735596775634414  1.5141956381582438  -2.3252907969655396 
H  1.9974861251319116  1.832692675574068  -4.125613564991458 
H  2.7032328292417276  2.1402098993846046  -2.779443042101413 
H  2.2057061200711665  3.3038035869451576  -3.679035318597368 
H  -0.45583855990458844  1.9347371396779174  -4.29189734993883 
H  -0.3802180824029031  3.4623663613388143  -4.037221939837757 
H  -1.2915884099455572  2.571205311356329  -3.150431925759482 
H  2.1599945646819814  2.6152221258553805  2.2071595460964515 
H  1.369032893127312  3.5745938747984862  4.131505445736471 
H  0.17122161267489733  3.3730358841406325  3.1683287003657203 
H  0.8090032151904367  4.778092296513975  3.331686116913843 
H  3.5383602344078717  4.2965575615311105  3.2600351528336677 
H  3.115938155588367  5.24616137827763  2.108060448881241 
H  3.9360453874944206  3.9654980322705637  1.7971621176387567 
H  1.7250100137333577  -2.9420242511461088  3.3371665884372685 
H  1.3673538872787518  -1.5124833070597923  2.8533471547739433 
H  2.7884805320174495  -2.0852790120575104  2.6022686213427977 
H  2.3275796106181987  -4.649805851893048  1.7935944666819377 
H  3.1711722805125397  -3.7962337222929508  0.8117011288541922 
H  1.9284241552952262  -4.5711845875046775  0.29716026188978023 
H  -0.16535072268568984  -3.871633952192582  2.162295114647225 
H  -0.3601718642731071  -3.6325464325672288  0.6418359403350742 
H  -0.578266944485992  -2.4690474615454794  1.6464713171849397 
H  2.893946961292084  -3.463234909297888  -2.8155955784647952 
H  3.2683185671667934  -3.4463551113517523  -1.3099311028474305 
H  3.647272569603097  -2.245099592827483  -2.2185565775357126 
H  0.42285210084139546  -3.3911986552662134  -2.9101661275765385 
H  -0.3159742324185062  -2.8786010010566008  -1.6470126316859772 
H  0.6909396050332067  -4.0542125653061225  -1.5348637843844102 
H  1.721489612413211  -1.407228830064041  -3.5978609408664646 
H  1.984979382198929  -0.3601794381680062  -2.485055939013737 
H  0.5381573548036339  -0.8477390227931333  -2.764974163650836 
Br  -1.654629867976521  1.654629867976521  0.0 
C  -1.352040782177733  -1.3199206589279684  -0.4819701001757076 
C  -1.6380700204479186  -1.599217458033982  -1.8139382277462257 
H  -1.1579680913617836  -1.159339363685303  -2.503515938957912 
C  -2.63068216563725  -2.52632649780156  -2.142289956238523 
H  -2.8368222554424674  -2.694399528648736  -3.0538898079700485 
C  -3.3101544432602585  -3.1961573187854975  -1.1619874135498987 
H  -3.9960123560788676  -3.811990145619169  -1.3868663427944008 
C  -2.9974710358883443  -2.9701089012107795  0.12423560353005347 
H  -3.438659168087169  -3.468581175155742  0.8017084178296768 
C  -2.0389854250767776  -2.015940632791841  0.4912562833419403 
H  -1.8619130127668426  -1.8492165108145995  1.4101568590026907 
