66

Pd  0.0  0.0  0.0 
P  1.5118602506514947  1.4853883608336238  -2.1341255897247634e-17 
N  1.5118602506514947  -1.4853883608336238  5.551115123125783e-17 
C  1.5594901162008972  -2.4461630798431884  1.210864940949187 
C  0.8966686576077649  -3.7580244161649574  0.7908796456202329 
C  0.6223495098653467  -3.566517711588144  -0.6720210096821186 
C  0.07140957572292317  -4.452866251616506  -1.6329459362797996 
C  0.010001965573489091  -4.02200125235071  -2.981263242340758 
C  0.49071802925992647  -2.772695273570487  -3.3965827909991573 
C  0.9560233519404274  -1.855365869403557  -2.406589679439297 
C  1.017912280369171  -2.3121192565239737  -1.1221555457088113 
C  1.2457701500575662  2.5698957007833796  -1.422775002578091 
C  1.8357336342348831  2.291999400472839  -2.668127568565367 
C  1.5780321373742847  3.1174066692573605  -3.7458580168470927 
C  0.745473831820739  4.219553557685398  -3.613567336214523 
C  0.16350333239268866  4.487256035693799  -2.415461973125101 
C  0.40203728318025767  3.6671613102198855  -1.3216728181360793 
C  1.9202012453973232  2.554327078724822  1.3988574549978838 
C  2.657272664024389  3.716938517951946  1.212074465351258 
C  3.029900757225477  4.496199905425313  2.346578420456939 
C  2.6473132887318314  4.090412081921886  3.605295752207013 
C  1.9520543589090378  2.9463419822704546  3.7862912979677414 
C  1.5653466250567065  2.1582432527617468  2.699500811661589 
C  2.9649557044765107  0.4909548685912195  -0.34511464990592494 
C  4.223478544632326  1.1031232778614282  -0.617892324024931 
C  5.312652310344765  0.3174260549849648  -0.8291173747362601 
C  5.176290069031851  -1.064871456655482  -0.8169379471328588 
C  3.981771509731796  -1.716979902191159  -0.5758017890213205 
C  2.854494234313834  -0.8952794720659266  -0.304525163676822 
C  3.9977644360279774  -3.2236257760985216  -0.5873869927918591 
H  1.0887952382392507  -2.066655420523955  1.9437404818009174 
H  2.461317480153208  -2.6053929528087068  1.4625946237087484 
H  0.0905015708675061  -3.8990594818244366  1.2718430418482205 
H  1.483450482262982  -4.49256610827009  0.9319266335839362 
H  -0.24196373059667176  -5.315485179289331  -1.3810468761249337 
H  -0.3791142252773714  -4.596102051498898  -3.626652522105385 
H  0.5087936577169967  -2.547390448364922  -4.321713093926811 
H  1.2067803679889304  -0.9674191513750235  -2.6347393558467216 
H  2.407999060603224  1.5395836218997738  -2.769283576482641 
H  1.9738754445158584  2.930151566595926  -4.587868184670786 
H  0.5794977484854704  4.783303885263058  -4.362355048397887 
H  -0.4088783200135291  5.241429920139281  -2.3266779317147877 
H  -0.015397419834299209  3.86212056305628  -0.4899581684799332 
H  2.912560793754672  3.988709558202621  0.3362873493807767 
H  3.5464369000854803  5.2864284180152765  2.2353681645936487 
H  2.8723668841129273  4.6247531006939475  4.357131847951086 
H  1.7230180009082412  2.6734400189263363  4.668582681308115 
H  1.0643353166974645  1.3635962862690496  2.8395058027873326 
H  4.299017232589503  2.0511631354039292  -0.6580189377931267 
H  6.164522341804954  0.7107610207121144  -0.9827804940475016 
H  5.9489063167055685  -1.5941307606389854  -0.9800027286692377 
H  4.597178163613654  -3.5365126528606154  0.079107234889011 
H  4.285375430342819  -3.5248699333833375  -1.440865459802597 
H  3.1252873288932532  -3.547745159752374  -0.4115799887627289 
Br  -1.654629867976521  1.654629867976521  0.0 
C  -1.352040782177733  -1.3199206589279684  -0.4819701001757076 
C  -1.6380700204479186  -1.599217458033982  -1.8139382277462257 
H  -1.1579680913617836  -1.159339363685303  -2.503515938957912 
C  -2.63068216563725  -2.52632649780156  -2.142289956238523 
H  -2.8368222554424674  -2.694399528648736  -3.0538898079700485 
C  -3.3101544432602585  -3.1961573187854975  -1.1619874135498987 
H  -3.9960123560788676  -3.811990145619169  -1.3868663427944008 
C  -2.9974710358883443  -2.9701089012107795  0.12423560353005347 
H  -3.438659168087169  -3.468581175155742  0.8017084178296768 
C  -2.0389854250767776  -2.015940632791841  0.4912562833419403 
H  -1.8619130127668426  -1.8492165108145995  1.4101568590026907 
