65

Pd  0.0  0.0  0.0 
O  0.11617  1.87058  0.0 
O  2.4431  -1.21037  0.23913 
N  1.8983  0.02016  0.0 
N  0.38553  -1.89074  0.0 
N  4.20453  0.65887  -0.02347 
C  1.1326  2.75605  0.08232 
C  0.7986  4.11493  0.00758 
C  1.76417  5.10943  0.10292 
C  3.09857  4.76723  0.25375 
C  3.46247  3.42895  0.36323 
C  2.48041  2.40839  0.28965 
C  2.86956  0.97811  0.53783 
C  1.70038  -2.09005  -0.49591 
C  2.24458  -3.51154  -0.31388 
H  -0.24413  4.40288  -0.09787 
H  1.4864  6.15552  0.05545 
H  3.86354  5.53285  0.31616 
H  4.50694  3.23877  0.50783 
H  -0.35181  -2.58944  -0.2466 
H  4.96289  1.26376  0.34775 
H  4.51367  -0.27638  0.32193 
H  3.13465  -3.62183  -0.97115 
H  1.50143  -4.27544  -0.6224 
H  2.56991  -3.71155  0.73084 
N  0.48457  0.0  -1.87864 
N  -0.63417  0.22236  -4.07375 
C  1.77624  0.36443  -2.54115 
H  2.62137  -0.25019  -2.16821 
H  2.00162  1.43881  -2.39165 
C  1.75643  0.01881  -4.02421 
H  2.71619  0.31625  -4.49855 
H  1.61704  -1.07838  -4.16591 
C  0.59862  0.74145  -4.65764 
H  0.69473  1.84239  -4.51082 
H  0.59584  0.53262  -5.7495 
C  -0.71161  0.43308  -2.61498 
H  -1.41513  0.7679  -4.51075 
N  -1.84457  0.0  -0.60136 
N  -3.11128  -0.06855  -2.70186 
C  -3.02762  -0.35123  0.18475 
H  -3.04761  0.22824  1.11948 
H  -3.03381  -1.4409  0.40553 
C  -4.29191  0.05957  -0.59443 
H  -5.2084  -0.23643  -0.04122 
H  -4.30941  1.16662  -0.73059 
C  -4.26881  -0.57799  -1.97418 
H  -4.23887  -1.68816  -1.89436 
H  -5.18744  -0.29096  -2.52737 
C  -1.84557  -0.38104  -2.01219 
H  -3.10041  -0.54603  -3.63041 
O  0.0  0.0  1.83 
C  -0.76921  0.82269  2.6606 
H  -1.77772  0.38853  2.77915 
H  -0.80254  1.86028  2.30024 
C  -0.11472  0.78537  4.0769 
H  0.89761  1.24369  4.03317 
H  -0.74463  1.38608  4.76681 
C  0.03176  -0.64535  4.66737 
H  0.73007  -1.24657  4.04308 
H  -0.95521  -1.15392  4.67872 
C  0.56752  -0.63416  6.10631 
H  1.57606  -0.17157  6.15959 
H  0.64545  -1.67508  6.48984 
H  -0.12308  -0.07636  6.77448 
