63

Ni  0.0  0.0  0.0 
C  2.6402806186002916  -1.135713848674167  1.167602772865285 
H  2.206184906981231  -1.1239483918710482  2.0464734670974627 
C  3.1913907076912116  0.28364356847199246  1.0030844392535492 
H  3.9042319693109535  0.4007348066240286  1.6498051190530987 
H  3.592361056132563  0.34425247372432977  0.12167169242324027 
C  2.230810375520799  1.4510299079422577  1.1566744775555646 
H  2.772426001647939  2.2667223019053635  1.1537879630833 
C  3.754305256655849  -2.149897960394895  1.315963661708717 
H  4.1778131106933545  -2.2861075350258897  0.46675521300639855 
H  3.3901501984246636  -2.9801592545998767  1.6297876361111021 
H  4.401839901296614  -1.8243224506722762  1.9470912569371734 
C  1.907049374706367  1.8315727687941588  -1.3479206205404102 
H  2.4326591444442416  1.044764664653569  -1.601569624510064 
C  2.8539392984070906  3.0311342596529505  -1.2958740832618545 
H  3.158239259272834  3.2361670282515957  -2.183302963577268 
H  3.606754312969655  2.8197324198401663  -0.7400020512500552 
H  2.3903823609033674  3.788975379217674  -0.9318377620120908 
C  0.8306081695632584  2.022570067173956  -2.39383387883755 
H  0.16973031765309443  2.6376791068284744  -2.0654365825792276 
H  0.41479340727788705  1.1783703832529182  -2.5850173957352043 
H  1.222423664181385  2.3745271449177814  -3.1961074379202215 
C  0.7139546006312375  -3.1264288047924613  0.6832398449047283 
C  0.878907934015439  -4.352164451703374  0.031595354636196754 
H  1.2926404336992117  -4.377610415578973  -0.8004781887647922 
C  0.44135524476983434  -5.514090002432339  0.6015014422481357 
H  0.5614458957305009  -6.319908464740847  0.15305141007665485 
C  -0.17468834691824808  -5.507182386619113  1.8395253911214282 
H  -0.4814383971735279  -6.299653149340063  2.216504577418257 
C  -0.32849942519863484  -4.328041562091687  2.4935766797303804 
H  -0.7174756220942207  -4.3185042794797095  3.339040119796877 
C  0.0900737775784699  -3.132180368912339  1.9154146085390036 
H  -0.0500699271938958  -2.3297007313840976  2.364124028281015 
C  1.474945000617371  1.4326527284952173  2.4647663796395385 
H  0.9555619507103126  0.6271109547821176  2.523600793653805 
H  0.8915618717213191  2.193426930408922  2.5095197998683787 
H  2.098441473345229  1.464290701529112  3.1951096531474485 
C  1.9052814784298944  -1.9178007876969703  -1.6615557723136403 
C  3.1606751341814716  -2.4340304916539446  -1.9396878126311703 
H  3.7755351799384345  -2.548178231852972  -1.2512882865279067 
C  3.5059374262690657  -2.7794073603857723  -3.2264862693474674 
H  4.358206425250594  -3.1052109911274233  -3.404810685989223 
C  2.5956994442051102  -2.643687007324597  -4.249683939288681 
H  2.819329790033936  -2.9112616147800514  -5.111765999112218 
C  1.3743788214524155  -2.122412241893044  -3.995520123289488 
H  0.767501787259431  -2.003427884104828  -4.6905414812137405 
C  1.0260667828907626  -1.7657464366773108  -2.70800825259356 
H  0.18044187313113302  -1.4150181591211954  -2.545593206133778 
N  1.2887821664268937  1.555358649154592  1.1630276356739572e-14 
P  1.2887821664268937  -1.555358649154592  -1.6209256159527285e-14 
H  0.817691149145559  2.271792701587245  0.01667099132547134 
Br  -1.5839191898578664  1.5839191898578664  0.0 
C  -1.2937473829822488  -1.2398794889499034  -0.4598005675376139 
C  -1.601562203225019  -1.4938654694550033  -1.7919791134336869 
H  -1.1309417375171225  -1.0428217585005106  -2.480879663633267 
C  -2.60218398542082  -2.411889969420291  -2.121542410022959 
H  -2.8231586547736818  -2.5626138747145775  -3.03270050271447 
C  -3.2683208079706407  -3.09759503004543  -1.143064365570095 
H  -3.9596020908062854  -3.707191723557817  -1.3683280760515548 
C  -2.9347449854640226  -2.896087320001541  0.14198826503765638 
H  -3.3668350933519986  -3.405606940434718  0.8171022443470677 
C  -1.9675509241539992  -1.9516175659140573  0.5112421903797603 
H  -1.7755298364628027  -1.8022912010877177  1.4301324877763764 
