52

Ni  0.0  0.0  0.0 
P  1.3970653921703169  -1.458872266512734  1.4401660118124113e-15 
N  1.3970653921703167  1.458872266512734  -6.763802269245076e-17 
H  1.7003543081578005  1.1875866720953105  0.7956001129340905 
C  2.4145045893894452  -0.4419790236614062  -1.1262064431557253 
C  3.2484489919933006  -0.9789124193948318  -2.0871722812123723 
H  3.323409776327223  -1.9293330023526332  -2.170362462737574 
C  3.9565483445265985  -0.14901763162560258  -2.942866232444591 
H  4.524403145248508  -0.5048706572238995  -3.624587172030269 
C  3.825300642757737  1.1960045440926677  -2.8454403241527766 
H  4.335183554917121  1.7588405845383197  -3.426346433143979 
C  2.9829965660404625  1.7612964815227519  -1.8863343144635352 
H  2.895817607896543  2.7115478104576565  -1.823183533673477 
C  2.2720681123760764  0.9401555855733497  -1.013414058787322 
C  0.9520908011724398  2.855016313358404  -0.15379282760804525 
H  0.3751584148562639  3.0898373993873305  0.5770866010091117 
H  0.4754313150341146  2.95063598699402  -0.9813732420018294 
H  1.71629856880738  3.4366198364880916  -0.15715879991519557 
C  2.5051880032581404  -1.975835113303144  1.3561055909605002 
C  3.855704172583094  -2.274271727661939  1.1355840418956815 
H  4.235101581840349  -2.1633638204283834  0.2633625952653103 
C  4.663642712805537  -2.658735996998369  2.1863159919318633 
H  5.5711991014600954  -2.9163507578152097  2.027110664063913 
C  4.1541803522821965  -2.7553828338986492  3.4541297290901283 
H  4.737327213263372  -2.980230880934395  4.17865871696573 
C  2.8348980488487063  -2.4797993100847147  3.684192340675623 
H  2.475591661860106  -2.5600028362506424  4.564988273147908 
C  2.0131332879216135  -2.064089968066932  2.6359645979318733 
H  1.0892134069183093  -1.8713160107743887  2.8010322049194705 
C  1.067362368783809  -2.988682463902294  -0.9293902981701138 
C  1.3107510376400984  -4.240973752136235  -0.40554877128841454 
H  1.7027196782778526  -4.323361424284743  0.4640452697643972 
C  0.9603331385200524  -5.382555361594752  -1.112065703090069 
H  1.1623523805434672  -6.246065388426157  -0.7538660528753811 
C  0.3765026132649465  -5.291917796514379  -2.3522972982273096 
H  0.15042947000405427  -6.088423005827616  -2.8355775848447338 
C  0.13406447670938926  -4.048312299552822  -2.8878509350093537 
H  -0.2677387942177405  -3.991978142076204  -3.7547702012467945 
C  0.451713976948945  -2.8941477927280546  -2.189423053132125 
H  0.2615013880687225  -2.0364463621627635  -2.5674487758518185 
Br  -1.5839191898578664  1.5839191898578664  0.0 
C  -1.29374738  -1.23987949  -0.45980057 
C  -1.6015622  -1.49386547  -1.79197911 
H  -1.13094174  -1.04282176  -2.48087966 
C  -2.60218399  -2.41188997  -2.12154241 
H  -2.82315865  -2.56261387  -3.0327005 
C  -3.26832081  -3.09759503  -1.14306437 
H  -3.95960209  -3.70719172  -1.36832808 
C  -2.93474499  -2.89608732  0.14198827 
H  -3.36683509  -3.40560694  0.81710224 
C  -1.96755092  -1.95161757  0.51124219 
H  -1.77552984  -1.8022912  1.43013249 
