54

Ni  0.0  0.0  0.0 
C  2.23108843937516  -1.018996688317634  1.4393397151298748 
H  2.8044789690801264  -1.7813923968020808  1.7403907807801515 
H  1.5540252769713971  -0.8029923386616297  2.07360259047851 
C  3.092659381982499  0.21717505178815966  1.1866357780443548 
H  3.0973439918420747  0.7512810554380753  1.9968200356645538 
H  4.0034445416057824  -0.07756466876402013  1.0317372624322037 
C  2.6908428977159216  1.1205847283103665  0.03302274529129262 
H  3.2566390885087038  1.9091268299944721  0.05515223593156693 
H  2.8786288021295503  0.6536976597570214  -0.7957382693089592 
N  1.26927827819592  1.571315580174778  6.346515926723153e-16 
C  0.937311351888075  2.2792438054369937  1.2501458905723202 
H  0.9967340271738345  1.6697121288698538  1.9895070546343359 
H  0.04419165172827588  2.627159689997364  1.1932472222482324 
H  1.5555500302362333  3.0028936275010762  1.3824249955774237 
C  1.1908516556826185  2.5292367094444153  -1.1332265461856985 
H  0.2890815932234462  2.8456329453582097  -1.2225343641636408 
H  1.4569214018591998  2.0902278854351284  -1.9441073035178313 
H  1.7758541106024293  3.271596649559215  -0.9651294996603208 
P  1.26927827819592  -1.5713155801747785  2.220446049250313e-16 
C  0.4724040508069528  -3.0810869844245374  0.6249094835517952 
C  0.7173279529170464  -4.348580968528271  0.09033682016914732 
H  1.2975483828113934  -4.448918591338874  -0.6298875783220139 
C  0.09157714491679281  -5.455275468309515  0.6401967572813061 
H  0.24073335695531006  -6.297886524105658  0.2767783715873113 
C  -0.7487458200863317  -5.316760177208161  1.7175127362863016 
H  -1.150720193200879  -6.067477763721745  2.0900071908200637 
C  -1.001315272885161  -4.0647608431334765  2.250414658772476 
H  -1.5756364288348665  -3.97098377705003  2.9758704683883472 
C  -0.39736181764131917  -2.960069075992134  1.7002640761960632 
H  -0.5747917578557888  -2.119075457859097  2.0531600956904645 
C  2.4529197875773154  -2.0304940094497845  -1.285311264775159 
C  3.6590197370980246  -2.645694642725805  -0.9640045848213252 
H  3.8462806219560735  -2.878126395842753  -0.08263148496793771 
C  4.577551775373184  -2.907422188222589  -1.9653845959012155 
H  5.387597021037468  -3.312637014597044  -1.7554897306399133 
C  4.299811550564279  -2.57166250591783  -3.268639821581038 
H  4.915886538262123  -2.7634910404293205  -3.939603548529308 
C  3.121680356646986  -1.959576266123135  -3.5808547875468912 
H  2.939264008506536  -1.7284924631103682  -4.463702165022926 
C  2.204105603930586  -1.6814006529523036  -2.5983203243271378 
H  1.4083997039582778  -1.2557081673437804  -2.8181966041885964 
Br  -1.5839191898578664  1.5839191898578664  0.0 
C  -1.308147545195113  -1.308147545195113  0.0 
C  -2.5481111008682706  -1.081588847540519  0.5874691967409313 
H  -2.7399447190521347  -0.23895174706744582  0.9782000501948406 
C  -3.514692573752534  -2.090568128666735  0.6049610958635798 
H  -4.3504064840370384  -1.9365173000894942  1.0287619599160838 
C  -3.2692344052199704  -3.300825455744854  0.016423527177974795 
H  -3.920165040096455  -3.990528127682657  0.045080339651694334 
C  -2.0939695739763726  -3.5035118821402764  -0.6007549227026172 
H  -1.9425337635726068  -4.327915038834382  -1.0474288760065322 
C  -1.0854604411866036  -2.53050399443706  -0.5998012209931928 
H  -0.24896772463074335  -2.712575304189299  -1.0129111498427692 
