55

Pd  0.0  0.0  0.0 
N  1.8948282533276213  -0.025418718912365468  4.4027281820291364e-15 
N  0.23847397356465416  -2.0035771453056874  -4.145989107584569e-15 
N  1.584043132444744  -2.284874748977726  0.03398274325442259 
C  0.2666977731077246  2.0289958642180532  -2.6020852139652106e-16 
C  -0.5819772622366806  3.1573755769544065  -0.07319677771731463 
C  -0.04264016466614984  4.445619984582768  -0.04357615317208045 
H  -0.6403017291758926  5.182957166865423  -0.09094781063982608 
C  1.3207356801507049  4.707348680123156  0.04987969576555014 
C  2.182020100481812  3.6056863225323443  0.08144323742939254 
H  3.1208470785848696  3.742165425146135  0.12551022888124086 
C  1.6722296540475738  2.3015569728068273  0.05138213450752534 
C  2.582058717916518  1.1420218045472597  0.03172385104688942 
C  3.9665452681712283  1.0887091874274388  0.056262942709904354 
H  4.478130879939243  1.8885905070282198  0.08060727235071703 
C  4.598495977407858  -0.151593241896538  0.04563680002488009 
H  5.547945566922427  -0.19079299959897345  0.03422119812717246 
C  3.8706154545324845  -1.3331371109792172  0.050958439979501516 
H  4.295046519185963  -2.182880912069959  0.06557363292980885 
C  2.4968782916901855  -1.207128604472613  0.03397569244063754 
C  1.7823322375904322  -3.6249726564904883  -0.04064820917443272 
H  2.622328414295584  -4.067476325858404  -0.04346524958235358 
C  0.5560047404430704  -4.222505197837071  -0.11139156060890114 
H  0.37177589515434906  -5.152870662551527  -0.16243580250004833 
C  -0.37346086717419347  -3.175572985817386  -0.09307878659071438 
H  -1.3151585429709918  -3.289457228578406  -0.1414990989570787 
C  -2.0746854182393584  3.0211678274774676  -0.21986667914740357 
H  -2.448184758588625  3.863871702270508  -0.5542689401556959 
H  -2.470262361999829  2.8119985765690845  0.6514984200157152 
H  -2.275766987752858  2.3006599638310283  -0.8522275498736297 
C  1.8472609607892936  6.120346982340591  0.038647742280008626 
H  2.7526702381691885  6.135404167891204  0.41244482840791136 
H  1.261285103357561  6.691900000647738  0.5771285792381453 
H  1.8693965504019439  6.453579049406059  -0.8832353008180713 
S  -3.153515568605963  0.22336614036964855  -1.169161137996773 
N  -1.9933186264990643  6.106226635438361e-15  -0.00668137350092346 
H  -1.8857403376425714  -0.9084898514291113  0.09249579936185759 
H  -2.3462559114714683  0.3109491339195981  0.7848797226824882 
N  -0.006681373500929455  -6.772360450213455e-15  -1.9933186264990708 
H  0.7348107414333818  0.372742361976458  -2.3901367524440156 
H  0.17366483399160348  -0.8947266093118371  -1.8828945347779735 
C  -2.2964205271507927  -0.581623639488961  -2.467683264968914 
H  -2.029865930705161  -1.4812705052111506  -2.151852370169223 
H  -2.9236394922469833  -0.7075991361669385  -3.222583360385795 
C  -1.1067976002952087  0.09847876936459268  -2.96772496860096 
H  -1.317004545686093  1.0515677165333477  -3.1349042702330365 
H  -0.8282042444290852  -0.30983986405151787  -3.825230971887505 
O  0.0  0.0  1.83 
C  -0.012748763705898059  -0.47606725582340514  3.1447359038821237 
C  0.011352088826142748  0.46361702287594175  4.145793392377422 
H  0.757853301912477  -1.0369141856555646  3.254006887050274 
H  -0.8093223449841059  -1.0001879306906598  3.258989253007231 
H  0.0031450305155724667  0.023569767190395413  4.997100949584279 
H  -0.758890276837749  1.031370362898822  4.068944039554155 
H  0.808610964273561  0.99461221920447  4.067382634210281 
