50

Co  0.0  0.0  0.0 
N  1.9251857336859348  3.0185479817046312  -3.546419625679647 
N  1.1358157090831253  1.37110272226409  -1.0778871673631456e-15 
N  1.2243889846069609  0.9543892545404424  -3.0851988915920714 
H  0.7627681516360039  0.3051749538568882  -2.710980922548395 
O  1.1358157090831247  -1.37110272226409  -1.1102230246251565e-15 
C  2.6372268750460273  2.1109736367677545  -4.347239906031639 
C  3.586616831515906  2.321332955815511  -5.301698667552478 
H  3.880150978716209  3.2007286644090795  -5.507152998571825 
C  4.110276189260892  1.2410598399149295  -5.954653407261581 
H  4.782005279321064  1.3727623316887145  -6.61316699347492 
C  3.670041309144662  -0.058013891817423335  -5.6667368918408405 
H  4.0482147245460745  -0.785360008053865  -6.147011860040698 
C  2.7209284281946826  -0.3187909905672357  -4.725470200630245 
H  2.4333336436402497  -1.203431984494439  -4.531953245919349 
C  2.1946695638751175  0.8006811030082286  -4.056939109781903 
C  1.1042912589579936  2.287458364039263  -2.806620239154438 
C  0.18040629614274395  2.7915160497090623  -1.798335381090449 
H  -0.6513394049487697  2.255970070493534  -1.830645485730983 
H  -0.0555717039729533  3.7271600384261268  -2.0205231166633544 
C  0.7442026727481148  2.7485835406824632  -0.37398685092116624 
H  1.53282897747671  3.3439008365683236  -0.31306822725582767 
H  0.060027478900721576  3.0803106152585675  0.2620542736274608 
C  2.394651279212679  1.2025175672304051  0.2060769586316779 
H  2.939852730060189  1.9802304968927333  0.17114406539587645 
C  3.0681215193775113  -0.04826070572650565  0.4860038732205937 
C  4.404719297383846  -0.01697554065209861  0.8421231064485308 
H  4.8335028015731725  0.8218778955811548  0.9605364885249994 
C  5.128553751597405  -1.1792532672753069  1.0308348948692168 
H  6.04329531789359  -1.1506145888142498  1.289686904685684 
C  4.475191921638032  -2.3975075766546663  0.8284335193038344 
H  4.966838721175786  -3.205200958789675  0.9243927031248942 
C  3.1678986074816384  -2.4657190960990762  0.5003890568035207 
H  2.7595288738178914  -3.315711938411824  0.38512076695545183 
C  2.3920441853414482  -1.289605345601105  0.3246081376595212 
S  -2.278355884845359  2.2745724183298233  0.0008527747513016881 
O  -1.2303657992645929  1.2303657992645927  2.900797494744782e-17 
O  -3.0076675985553853  2.276275125185946  -1.2795240584641019 
O  -3.263434764690225  2.0351498893703557  1.102937350956883 
O  -1.6281589069484632  3.5916197221533066  0.17573393275591753 
O  -1.2303657992645927  -1.2303657992645929  -2.039441957216427e-16 
S  -2.159533510151115  -2.194488925903933  -0.7267508525795362 
C  -3.7671812061284795  -1.8718408426545972  -0.0477942486686534 
H  -3.733590673273821  -1.9611661702061265  0.9275640506041584 
H  -4.410850037586107  -2.515096971671424  -0.4124824413651804 
H  -4.044852675602387  -0.9624161521508069  -0.28363938290356977 
C  -1.8864264071999477  -3.7828300048175834  0.0315191701386498 
H  -0.9693504369973378  -4.0777446795777115  -0.1490805239033645 
H  -2.5175640744376393  -4.4349826535070065  -0.33880035108745976 
H  -2.0218804493651352  -3.710663070252786  0.9994645797649531 
