60

Ni  0.0  0.0  0.0 
P  1.425530962483805  -1.4310700454554977  3.364852368529588e-16 
N  1.425530962483804  1.4310700454554977  1.6011013043479772e-15 
C  2.324915910448582  0.9457075978200881  -1.03032169238534 
C  3.0827618312573075  1.7663376492486378  -1.850258817417482 
H  2.9849736602039005  2.6897995330304094  -1.8044927513395606 
C  3.9859265012620395  1.2087400372142003  -2.737149499468422 
H  4.4982241191806605  1.7592441075787293  -3.2818888859524464 
C  4.128093717346493  -0.1661110724488194  -2.817290805479487 
H  4.753322668392806  -0.5338574428457281  -3.3999054086550733 
C  3.3525353163863345  -0.9839917930444761  -2.043690266714103 
H  3.432094832010885  -1.9082021202748425  -2.122452786444803 
C  2.438430577388539  -0.4373801002876642  -1.1334814700727354 
C  1.606573228820258  2.6054947917054636  0.48846832363570314 
H  2.2318779722655435  3.1500315860256642  0.06778312368648454 
C  0.9112994920353867  3.158170485331804  1.6522042595816049 
C  0.5215028819513715  2.3723958451798732  2.7280267206136894 
H  0.6617599061699129  1.4529514167408755  2.7060845199527783 
C  -0.07632928560840413  2.9512269880931763  3.830390162235591 
H  -0.3378988512807257  2.422895302023017  4.551035117680566 
C  -0.284053195966145  4.309599313174766  3.864460875731712 
H  -0.7206889155269174  4.6907304162483365  4.590906428181144 
C  0.14421004434055962  5.103958218673464  2.8421544753521766 
H  0.030018746128693152  6.024456033705793  2.8932282448762567 
C  0.7513688454619427  4.542443135919964  1.7259209952678216 
H  1.0478178958931466  5.085681513711988  1.0336568799243004 
C  2.5451905173153033  -2.0085842192896264  1.2906780505979256 
C  2.2178399780516127  -1.8318098847255373  2.624235743044427 
H  1.4265419186126678  -1.4017522666834314  2.8581274194506667 
C  3.065517287073384  -2.2917988573760524  3.6046107400785083 
H  2.851748447344521  -2.1620876908335966  4.499929290336006 
C  4.237131941123234  -2.950847331624428  3.260024639072411 
H  4.791271095875939  -3.2870225220197193  3.927284722197932 
C  4.578222798014974  -3.106917197463111  1.958394812922915 
H  5.375943000473411  -3.530819383052435  1.7340888931564342 
C  3.74432263219211  -2.6400504482626235  0.9657761842786594 
H  3.9837772816411157  -2.7445365183014983  0.07312103136399217 
C  0.8506367872822924  -2.8591304688357666  -0.9622055157264363 
C  -0.00597679394688333  -2.6438297496442544  -2.015074317035209 
H  -0.2635297769488385  -1.7762655699993457  -2.2273194939977286 
C  -0.4920331160691216  -3.7053020687832543  -2.765975460613166 
H  -1.079301463340569  -3.550436693252694  -3.4708162254351653 
C  -0.10308299214960681  -4.970581634063839  -2.4638574658058974 
H  -0.4092076713783921  -5.68191423670803  -2.979884935212819 
C  0.7316883590828316  -5.2094174591063585  -1.4135077479319562 
H  0.9746077690952882  -6.0817177800893685  -1.2031380727120284 
C  1.2192163007513033  -4.159497289390444  -0.6625599179755616 
H  1.7982901390466357  -4.325711071696459  0.04529476228971965 
Br  -1.5839191898578664  1.5839191898578664  0.0 
C  -1.2937473829822488  -1.2398794889499034  -0.4598005675376139 
C  -1.601562203225019  -1.4938654694550033  -1.7919791134336869 
H  -1.1309417375171225  -1.0428217585005106  -2.480879663633267 
C  -2.60218398542082  -2.411889969420291  -2.121542410022959 
H  -2.8231586547736818  -2.5626138747145775  -3.03270050271447 
C  -3.2683208079706407  -3.09759503004543  -1.143064365570095 
H  -3.9596020908062854  -3.707191723557817  -1.3683280760515548 
C  -2.9347449854640226  -2.896087320001541  0.14198826503765638 
H  -3.3668350933519986  -3.405606940434718  0.8171022443470677 
C  -1.9675509241539992  -1.9516175659140573  0.5112421903797603 
H  -1.7755298364628027  -1.8022912010877177  1.4301324877763764 
