79

Pd  0.0  0.0  0.0 
N  1.8463739095770701  0.015422826544431969  -4.6925810305574304e-15 
C  2.5269289919080222  -1.15617535375398  -0.004818073781512233 
C  1.6192736641829717  -2.315547327175013  0.014467239235128068 
N  0.3122000921999446  -1.9443777750664808  2.4169302876837115e-15 
C  -0.628259197537175  -2.912991158395311  0.027161884754751436 
H  -1.5359586108519745  -2.664616204557643  0.031274958314184205 
C  -0.3119937563000952  -4.244439244053773  0.04846037943240337 
H  -0.9902946977925975  -4.894957181548036  0.052052839396485195 
C  1.0101863556577673  -4.617225617841996  0.06539912380503862 
H  1.2451895885733864  -5.527254110267267  0.0827733430218934 
C  1.9908232165293012  -3.6445789607641537  0.057046425119987434 
H  2.8999757097169994  -3.885303665442739  0.07817225499725065 
C  3.923916390595263  -1.1054012190555504  0.01305635361301392 
C  4.803877240704722  -2.314413173948941  0.08352333311048578 
N  5.008396881895433  -2.9599820331554354  -1.0632166916510322 
C  5.824894184557143  -4.037915534128027  -0.9881229354051008 
H  5.995010071104486  -4.518582632753533  -1.7777249461948086 
C  6.414477869589531  -4.468913413215881  0.1683317833649 
H  6.9717194347489695  -5.226777635729644  0.16857322128335442 
C  6.1836241987660685  -3.7865660681219153  1.309913139778252 
H  6.574424457979372  -4.0613843762021  2.1183549403692146 
C  5.357193534525054  -2.6756811672975105  1.2693996318764362 
H  5.182194693178573  -2.1811357325892855  2.049474390176332 
N  4.575861121966037  0.061177156762242786  -0.011499507443105024 
C  3.8855574913410074  1.1977337657939968  -0.020170840220886187 
C  4.71472442974381  2.4354145231495523  -0.1010100085212986 
N  4.523136321753512  3.1910328844166593  -1.1999300142508824 
C  5.267018923305494  4.2985562404726  -1.312911565394616 
H  5.152595145439872  4.839967317300844  -2.0725690835872816 
C  6.182610902041979  4.675435382266337  -0.37490439540377946 
H  6.6795725483484105  5.465016497163485  -0.4913229725217902 
C  6.378008874216441  3.8969278434766617  0.7399890409917128 
H  7.004734258252537  4.142926612295247  1.3960241229382142 
C  5.628356613800441  2.735574352687166  0.8729365038641924 
H  5.7461786465141325  2.169743289675966  1.6143587228048104 
C  2.4848528375773222  1.198858811719958  0.027152485913475334 
C  1.538643723861184  2.32263182526869  0.1284981673218355 
N  0.2414259982229855  1.928954948522049  2.275650742873719e-15 
C  -0.7202300010860607  2.863864920463846  0.061188425022290875 
H  -1.616271584531147  2.5985478912875073  -0.04902470834331488 
C  -0.4496198560746456  4.1928200594029965  0.28117198828128287 
H  -1.1461625697042734  4.822528828203753  0.30643074092093003 
C  0.8542152088673548  4.590739271463022  0.4612678630291946 
H  1.0573810105007224  5.4917824414141645  0.6393349934353049 
C  1.858750050563015  3.6507094892197403  0.3775713857130985 
H  2.756466847984445  3.90812523016896  0.4895965076232174 
S  -2.027297158202046  -2.7755575615628914e-17  0.027297158202046035 
O  0.027297158202046035  2.7755575615628914e-17  -2.027297158202046 
N  -2.189414696687929  0.012277643096476254  -1.7584935275154274 
N  -1.1095405915955598  0.031536888006559946  -2.492415041463926 
O  0.0  0.0  1.83 
P  0.19134408657685814  -0.5796740700414887  3.2163909921279794 
C  0.6405218549773981  -2.30323452041304  3.2026554073306333 
H  -0.024410443309399517  -2.8036160163865698  2.724026399452579 
H  0.6947594399519318  -2.626142523976746  4.105631262827685 
H  1.4914859592015886  -2.4084233739918046  2.772504458936111 
C  1.421023891901914  0.33296743299128323  4.116912592822719 
C  2.525350244130062  -0.2570925771376775  4.664971040637442 
H  2.6658576409390236  -1.1707416983246417  4.566161249643551 
C  3.4396996463410026  0.5195743138687126  5.369541520498022 
H  4.204569189551373  0.12677057564257055  5.721028739475791 
C  3.2213821096671245  1.854060076346916  5.551973817319656 
H  3.8220511586168384  2.3640849359166785  6.045677317666466 
C  2.1506580315277795  2.4123220269492283  5.021287202637931 
H  2.010270443897743  3.3259058205158043  5.125741582019177 
C  1.2260558829037886  1.6512612168068208  4.303944822720723 
H  0.46675677199699594  2.0588746514021543  3.952092668949356 
C  -1.3633731631272388  -0.4035290564052516  4.083688338857242 
C  -2.4243502322433748  0.23255398369870062  3.495544228199108 
H  -2.3445726402551035  0.5575823942154395  2.6283694371831814 
C  -3.6084971103616055  0.39413426114530875  4.1759529766607395 
H  -4.318768202830248  0.8438312934705077  3.777003538358954 
C  -3.7373382293985298  -0.1031934477519231  5.426688482676438 
H  -4.546633895137852  -0.012075899192873635  5.875169995963371 
C  -2.7039689492112386  -0.7321828325507722  6.032993541681858 
H  -2.7985793953511147  -1.0562386666503545  6.899807039423579 
C  -1.5057182499108857  -0.8904983409443636  5.357886067698422 
H  -0.7955758410448242  -1.3272799592026083  5.76962282471875 
