51

Pd  0.0  0.0  0.0 
P  1.4991070592189208  -1.4982583305291501  2.0748311571175989e-16 
N  1.4991070592189208  1.4982583305291506  -1.8348372687783814e-16 
N  2.7955160236496734  0.8711426850795699  -0.03424914854369548 
C  1.4464729518147108  2.5069000708799454  -1.097855751162194 
H  2.1110655553943634  3.2085083306709947  -0.9296958835950282 
H  0.5521086941637618  2.9066884103103376  -1.1341136922506805 
H  1.6433668520736802  2.0696377499231704  -1.952834086976803 
C  1.3283773038250395  2.1645154302960847  1.3233357728231172 
H  1.4151334596574716  1.4994915591135352  2.0375676120620003 
H  0.4423633174223145  2.57965688976678  1.3685743020576402 
H  2.0179172789530813  2.8533743800310667  1.43403283723971 
C  1.744573578599578  -2.9503588799928853  -1.0198107677948298 
C  1.7902319433718907  -4.017032745530858  -0.1913708132389132 
C  1.6147990518399644  -3.7027196458441836  1.2631425541572556 
C  1.442823562532368  -2.403754133459782  1.5546598241659788 
C  2.968228794190868  -0.49659463247384417  -0.058519687552431914 
C  4.322143097672674  -0.722313998159307  -0.08623641142003349 
H  4.747373810999873  -1.5716931766822464  -0.10416910600135412 
C  4.964739416430071  0.5195327095061694  -0.08268454150865019 
H  5.904247509701161  0.6609150170052948  -0.10377069346725495 
C  4.011380006001842  1.4909432835998744  -0.042876111661595065 
H  4.16403754283776  2.4276528792704273  -0.023091778822273167 
C  1.851811179190574  -2.8706427572346587  -2.506808349094785 
H  1.9481611040727507  -3.77257007007846  -2.8768649857351254 
H  2.633825590051128  -2.332192929483606  -2.7489223598444648 
H  1.0427155428271329  -2.453328004324739  -2.8700380122851645 
C  2.0166159027124  -5.429629543342435  -0.6116216428226231 
H  2.1230576547079973  -5.468736581031529  -1.5847349831048854 
H  1.2489555977892168  -5.976719953786213  -0.34441281241890953 
H  2.8267324406804244  -5.7726890041354695  -0.1802159622027341 
C  1.6899029323241217  -4.795025933520226  2.2895005234056174 
H  1.512334895058555  -4.422007747262173  3.178210034360938 
H  2.583777006190567  -5.196271091147802  2.2764000062463268 
H  1.0222882470396553  -5.482026021573447  2.084928455401688 
C  1.2685583131552296  -1.7275026190482698  2.87141441486074 
H  1.070250953920678  -2.397569746020582  3.5587325410763193 
H  0.5287211118901052  -1.0884576723321393  2.815530860027689 
H  2.0924253276007043  -1.2535789100779882  3.1064319473653987 
Br  -1.654629867976521  1.654629867976521  0.0 
C  -1.3788582233137676  -1.3788582233137676  0.0 
C  -2.618821778986925  -1.1522995256591737  0.5874691967409313 
H  -2.8106553971707884  -0.30966242518610043  0.9782000501948407 
C  -3.5854032518711887  -2.161278806785389  0.6049610958635797 
H  -4.421117162155692  -2.007227978208148  1.0287619599160838 
C  -3.3399450833386255  -3.3715361338635086  0.016423527177974573 
H  -3.9908757182151104  -4.061238805801311  0.045080339651694 
C  -2.164680252095028  -3.57422256025893  -0.6007549227026177 
H  -2.0132444416912625  -4.3986257169530365  -1.0474288760065327 
C  -1.1561711193052586  -2.601214672555715  -0.5998012209931929 
H  -0.3196784027493984  -2.7832859823079534  -1.0129111498427692 
