99

Pd  0.0  0.0  0.0 
N  2.085402691492646  -0.01615582568180296  -7.327471962526033e-15 
N  -0.1997047646022133  2.0467905633694654  4.440892098500626e-16 
C  0.5143020731095678  -2.0306347376876626  6.8833827526759706e-15 
C  -0.3381054405137347  -3.144477257884529  -0.013315814658983238 
H  -1.2500138316504865  -3.018372717544258  0.11471430320375842 
C  0.13996960968648642  -4.426450552125487  -0.21032967008301318 
H  -0.45789252388162094  -5.138235422990966  -0.2170488108319869 
C  1.5066500474371958  -4.673805715742483  -0.4025728860921658 
C  2.3521235673721206  -3.600226947002594  -0.3685488592906375 
H  3.2645685653576413  -3.7310629557613852  -0.49332547754612077 
C  1.8650332285620388  -2.312946768958514  -0.14987001931593003 
C  2.000157466133034  -6.053519315187494  -0.6639101800221897 
H  1.2604637930676794  -6.666558749590557  -0.6463451040514853 
H  2.635618870913552  -6.2997815634804155  0.012154142435434667 
H  2.421964366130905  -6.0849417545328075  -1.525781730440102 
C  2.679830743187087  -1.1475426999836955  -0.09909496463568274 
H  3.6064814116559605  -1.2048613433154185  -0.13612538122533235 
C  2.9046021233832313  1.193596309946682  0.08494422365563625 
H  3.7565369172309593  1.0397490397721667  -0.34994980308131296 
H  3.075511159030736  1.4031639186671931  1.016882729625428 
C  2.2049422421359597  2.364978853601995  -0.5751659542636741 
H  2.840596629697024  3.091297491094208  -0.6668988077340722 
H  1.9330523249046108  2.0990284682627625  -1.4676719348855651 
C  1.0295203637815953  2.8591869954743947  0.1446096499303865 
H  0.8378868308470826  3.7598142948139612  -0.16525930098170682 
H  1.2479627762339944  2.9176176149330804  1.0866337181747445 
C  -0.7873657371285396  2.325157903922724  -1.3114219553914452 
H  -0.1798026963250987  2.0404299349702595  -1.9993470059208476 
H  -0.9496635668008082  3.267278920553556  -1.3965131094919712 
H  -1.615081464439245  1.8475887701665328  -1.3989785499224676 
C  -1.1490512962961688  2.5026609810398126  1.0310658490386153 
H  -0.7773684785814183  2.3387490617905757  1.901546478199112 
H  -1.9732246494822265  2.020966022918698  0.9409267830419626 
H  -1.3100807590381935  3.4413359094405473  0.9235663098726575 
O  1.6304869649523575  0.03331674189978805  -2.2837789442667127 
O  -2.938595951087988  -0.10693939622432376  0.07049586808358543 
H  -2.7697695215310802  -0.11870361174232265  0.8730943292809172 
N  -3.0808008956351656  0.002421210563996279  -2.5526085944625283 
H  -3.7827968891644357  0.14290792036884686  -2.077316263957326 
N  0.40284266262278484  3.6920847837846436e-15  -1.8338169440189458 
N  -1.7628426626227842  1.2186219751360405e-16  -0.6461830559810543 
C  -3.2569781215435376  -0.24235516118370812  -3.954430855986881 
C  -3.2679019562411273  0.8519616181905186  -4.82381147816314 
C  -3.489307071130478  0.595148028191039  -6.1713713822462335 
H  -3.499623111005811  1.299727888039775  -6.778731119483421 
C  -3.6912087588914626  -0.692017374484007  -6.616403060484624 
H  -3.8488786796018233  -0.8429702129563967  -7.519786404730171 
C  -3.6647809920761603  -1.7538410271389584  -5.753168559434236 
H  -3.795945342762244  -2.615044345384172  -6.077692222288765 
C  -3.4424314144126553  -1.5536455871554693  -4.3873528869795875 
C  -3.0927513591664066  3.386862827977386  -5.268490446594872 
H  -2.9331148731425687  4.214404955223363  -4.809662123620819 
H  -3.9588506130284467  3.4115765362397257  -5.681908655051624 
H  -2.4204871437609756  3.2586291415803315  -5.942010309968147 
C  -3.0386899217604237  2.244522120052066  -4.2803089005203265 
H  -3.7022535134699215  2.4115976235497905  -3.59242128187279 
H  -2.1686316745251206  2.260343364614226  -3.8507508664453614 
C  -3.3770983640041963  -2.725861770614894  -3.4392605751448375 
H  -3.9362185876323132  -3.4413862503787622  -3.7799306565853765 
H  -3.732073897790746  -2.4569272989709314  -2.576792169709287 
C  -1.9624580948387953  -3.24516390143289  -3.25398001549656 
H  -1.9698984158135886  -3.986954585270749  -2.64465146455284 
H  -1.408335136753494  -2.545070225333599  -2.900183333758905 
H  -1.6138434942205575  -3.531491747455776  -4.10133719805165 
C  -1.891627539479029  0.02616913676906527  -1.9369377854993757 
C  -0.6151244931684231  0.08158883227540552  -2.6371963949500237 
H  -0.5371233717391463  0.16603969753885495  -3.5603450159271817 
P  0.0  0.0  2.31 
C  1.3888375471482188  1.00626466856873  2.958501175343255 
C  1.5565640665236542  1.187715723373023  4.4100599889669425 
C  2.8093220952844096  1.8318542118912355  4.801686633853292 
C  -1.4113433524808499  0.46583223130815227  3.3186148936450337 
C  -1.8446015723467168  1.758149736671912  3.3290643074588133 
C  -2.7985712322672516  2.206597138712233  4.498815612461028 
C  0.5069417388434491  -1.6772596967418585  2.9352324392606244 
C  -0.40293602296408354  -2.726777753674768  2.724125649365356 
C  0.06629047535911137  -4.0282286965356615  3.411420969149977 
H  1.2974294427572206  1.8826014188510578  2.5796315426775402 
H  2.197218593187046  0.6005596520939389  2.6362082433506937 
H  1.524923401599496  0.3221719570654112  4.826278809936383 
H  0.8305455079615894  1.7255089668820862  4.731107555317264 
H  2.8413136058575548  1.913526974420273  5.758354095990541 
H  2.858641372093617  2.7046154290890287  4.406573856673858 
H  3.5497787400377323  1.3032101840342256  4.500978770551102 
H  -1.1933528067400951  0.2369157201217905  4.223816911359263 
H  -2.1515599478976686  -0.06986389237519675  3.023487692356898 
H  -1.0650776540958014  2.3184552574629747  3.3675604663035013 
H  -2.3097148050683587  1.9130086888302178  2.503990658816672 
H  -3.0251826702838045  3.1323694127778667  4.387761154056982 
H  -2.355208574612587  2.0845640845401747  5.339750626291963 
H  -3.6011751642807557  1.6779569926696487  4.477050174065775 
H  0.6530522571721254  -1.6046298621441217  3.882329241894881 
H  1.3310999300533897  -1.914411149742718  2.5031053234704435 
H  -1.2576630100647095  -2.475463140060348  3.0804233935424987 
H  -0.4800387442965949  -2.885670726479956  1.7807456922132805 
H  -0.575152180412061  -4.72241209863985  3.247880626725609 
H  0.14260836931442378  -3.8794406931195873  4.356031226929176 
H  0.9170105946183055  -4.28772073984993  3.0557593488643353 
