53

Fe  0.0  0.0  0.0 
S  1.41271  -2.25752  1.49649 
O  1.85098  -3.69315  1.18386 
O  0.04099  -2.38086  2.13998 
N  1.27316  1.36966  0.0 
N  2.53799  1.2542  -0.4581 
N  1.27316  -1.36966  0.0 
F  -0.42743  1.56555  2.3005 
F  2.35718  3.82706  -0.93298 
C  0.95926  2.62457  0.61615 
C  0.10405  2.68476  1.74708 
C  -0.25139  3.90606  2.30355 
H  -0.94655  3.93435  3.13189 
C  0.27701  5.08302  1.78979 
H  -0.0037  6.02733  2.22751 
C  1.16948  5.04226  0.71912 
H  1.58227  5.96152  0.33434 
C  1.51475  3.82443  0.13102 
C  3.09376  0.18192  -0.80734 
C  4.43272  0.3724  -1.37289 
H  4.83565  1.39786  -1.49307 
C  5.05307  -0.82322  -1.97036 
H  5.9829  -0.68284  -2.49214 
C  4.47657  -2.02705  -1.86556 
H  4.95897  -2.88233  -2.30868 
C  3.18745  -2.21354  -1.16273 
H  2.78556  -3.21959  -1.1031 
C  2.50982  -1.16406  -0.6583 
C  2.42794  -1.32834  2.54442 
C  3.78737  -1.56192  2.55348 
H  4.20261  -2.34376  1.93031 
C  4.59859  -0.77717  3.35612 
H  5.65818  -0.97304  3.36053 
C  4.03934  0.2536  4.13263 
C  2.65645  0.48763  4.09625 
H  2.20085  1.27908  4.67661 
C  1.85222  -0.31026  3.29885 
H  0.78646  -0.14058  3.25624 
C  4.91041  1.1019  4.98963 
H  5.96709  0.77623  4.90888 
H  4.58481  1.01164  6.04581 
H  4.83453  2.15858  4.66203 
O  -2.90522  3.20411  -0.03243 
N  -1.32229  1.32229  0.0 
C  -2.13852  2.28667  -0.00382 
O  -1.26572  -1.26572  0.0 
C  -1.7739  -2.55858  0.20374 
C  -3.19919  -2.62588  -0.3114 
H  -1.96047  -2.70191  1.29011 
H  -1.14888  -3.34611  -0.24921 
H  -3.62348  -3.61483  -0.03338 
H  -3.21005  -2.49692  -1.40843 
H  -3.8284  -1.83623  0.16871 
53

Fe  0.0  0.0  0.0 
S  1.39653  2.20257  -1.53183 
O  1.87705  3.62517  -1.21159 
O  -0.03874  2.40472  -2.03661 
N  1.27316  -1.36966  0.0 
N  2.52821  -1.27451  0.52113 
N  1.27316  1.36966  0.0 
F  -0.44361  -1.55334  -2.30936 
F  2.35889  -3.8277  0.90633 
C  0.99578  -2.60502  -0.67342 
C  0.12599  -2.66598  -1.79176 
C  -0.23261  -3.89843  -2.34031 
H  -0.94279  -3.9362  -3.15517 
C  0.28748  -5.07946  -1.81546 
H  -0.01175  -6.03097  -2.23016 
C  1.18073  -5.03653  -0.74676 
H  1.5748  -5.95723  -0.33793 
C  1.53938  -3.81438  -0.17669 
C  3.10728  -0.20112  0.85595 
C  4.42329  -0.33319  1.46777 
H  4.86969  -1.32279  1.52863 
C  5.0427  0.73701  1.97144 
H  5.99952  0.59818  2.45453 
C  4.44161  2.09668  1.88693 
H  4.98248  2.93  2.31105 
C  3.25782  2.31036  1.28736 
H  2.83712  3.30581  1.22247 
C  2.51416  1.15241  0.71561 
C  2.38883  1.27603  -2.59475 
C  3.74844  1.52149  -2.59027 
H  4.15826  2.30418  -1.9648 
C  4.57585  0.74946  -3.37993 
H  5.63471  0.95618  -3.3696 
C  4.03451  -0.28286  -4.16024 
C  2.65107  -0.53281  -4.14244 
H  2.21392  -1.33161  -4.72815 
C  1.82573  0.25902  -3.35631 
H  0.76036  0.08601  -3.32579 
C  4.92889  -1.11173  -5.00383 
H  5.98207  -0.7707  -4.91153 
H  4.60778  -1.01324  -6.05962 
H  4.85735  -2.16645  -4.67278 
O  -3.07997  3.02111  0.1793 
N  -1.32229  1.32229  0.0 
C  -2.21611  2.20123  0.09895 
O  -1.26572  -1.26572  0.0 
C  -1.82072  -2.49394  0.43205 
C  -3.20903  -2.60916  -0.20341 
H  -1.90282  -2.55632  1.52809 
H  -1.28498  -3.37909  0.05799 
H  -3.64697  -3.60188  0.02787 
H  -3.15405  -2.50998  -1.31519 
H  -3.87353  -1.81033  0.18612 
40

Fe  0.0  0.0  0.0 
N  3.25264  -2.19882  -0.58839 
C  3.12786  -3.61932  -0.56222 
C  1.88124  -4.26922  -0.50154 
H  0.94893  -3.73042  -0.46282 
C  1.82857  -5.66092  -0.52506 
H  0.86843  -6.16129  -0.49593 
C  3.01219  -6.41254  -0.59351 
H  2.96815  -7.48198  -0.62575 
C  4.24647  -5.7632  -0.65383 
H  5.16333  -6.32694  -0.7175 
C  4.30204  -4.38001  -0.64009 
H  5.27129  -3.89848  -0.68928 
N  4.40312  -1.61836  -0.91277 
C  4.23345  -0.29488  -0.89409 
C  5.34242  0.65491  -1.25062 
H  5.67976  1.2089  -0.35285 
H  5.00177  1.36163  -2.03508 
H  6.20837  0.08681  -1.64936 
C  2.93314  -0.01628  -0.53347 
C  2.31992  1.31982  -0.43519 
O  1.0307  1.46347  0.0 
C  3.0781  2.5917  -0.45694 
C  3.94869  2.96754  0.58043 
H  4.09099  2.32694  1.44317 
C  4.64357  4.1783  0.49192 
H  5.32423  4.47199  1.27956 
C  4.45907  5.00815  -0.62126 
H  5.00147  5.93962  -0.6985 
C  3.57144  4.63614  -1.63717 
H  3.42127  5.2741  -2.49412 
C  2.87946  3.4325  -1.54779 
H  2.19281  3.14318  -2.33437 
C  2.32766  -1.24773  -0.35238 
O  1.0307  -1.46347  0.0 
Cl  -3.26509  1.68457  -1.84702 
Sn  -1.81019  1.81019  0.0 
Cl  -3.1662  1.79574  1.92488 
Cl  -1.00176  4.02213  -0.08547 
F  -1.27279  -1.27279  0.0 
40

Fe  0.0  0.0  0.0 
N  3.2843  2.19808  0.52926 
C  3.16621  3.62889  0.56307 
C  1.9351  4.27694  0.50299 
H  1.03804  3.70679  0.48027 
C  1.86187  5.66378  0.53523 
H  0.89542  6.14462  0.50683 
C  3.03164  6.41974  0.60639 
H  2.97734  7.49702  0.62256 
C  4.27431  5.78478  0.65916 
H  5.1871  6.35886  0.71553 
C  4.34357  4.39553  0.64153 
H  5.31734  3.9226  0.6794 
N  4.42532  1.61459  0.85736 
C  4.26704  0.29161  0.80132 
C  5.35445  -0.65888  1.20042 
H  5.70471  -1.23879  0.32839 
H  4.99279  -1.34143  2.00098 
H  6.21586  -0.09162  1.61343 
C  2.97042  0.01966  0.39611 
C  2.37282  -1.31308  0.20768 
O  1.0307  -1.46347  0.0 
C  3.10483  -2.5948  0.37658 
C  3.99533  -3.00357  -0.62187 
H  4.14565  -2.38299  -1.49736 
C  4.67654  -4.2108  -0.49424 
H  5.35832  -4.52157  -1.27201 
C  4.47117  -5.01283  0.6336 
H  5.00188  -5.94862  0.72951 
C  3.57826  -4.60916  1.63194 
H  3.41784  -5.23485  2.50002 
C  2.88825  -3.40069  1.50464 
H  2.19217  -3.09266  2.27669 
C  2.35466  1.24917  0.26084 
O  1.0307  1.46347  0.0 
Cl  -3.40925  1.408  -1.68102 
Sn  -1.81019  1.81019  0.0 
Cl  -3.29475  1.55067  1.80908 
Cl  -1.39087  4.12088  -0.14556 
F  -1.27279  -1.27279  0.0 
25

Fe  0.0  0.0  0.0 
O  5.02269  1.12642  -0.14679 
O  3.5496  2.44184  -1.14949 
N  1.30687  1.33753  0.0 
H  1.22803  1.79288  -0.93849 
H  1.25113  2.07638  0.73957 
N  1.30687  -1.33753  0.0 
H  1.40964  -1.79265  0.93587 
H  1.07616  -2.06474  -0.71637 
C  3.75552  1.48814  -0.41358 
C  2.60592  0.68566  0.17493 
H  2.77136  0.56138  1.26821 
C  2.53239  -0.68903  -0.45318 
H  2.46544  -0.55278  -1.55869 
H  3.42938  -1.30652  -0.22941 
C  -1.35057  1.35057  0.0 
H  -0.84049  1.91523  0.80153 
H  -1.02835  1.61238  -1.03162 
C  -2.63362  2.14547  0.05318 
H  -3.40581  1.70887  -0.59884 
H  -2.38654  3.18325  -0.30121 
H  -2.97671  2.2351  1.10637 
O  -3.20275  -2.89098  -0.00078 
N  -1.32229  -1.32229  0.0 
C  -2.30392  -2.11502  -0.00315 
25

Fe  0.0  0.0  0.0 
O  4.90478  -1.07906  0.19128 
O  3.55302  -2.54163  1.16307 
N  1.30687  -1.33753  0.0 
H  1.24346  -1.7609  0.95456 
H  1.16119  -2.08039  -0.72227 
N  1.30687  1.33753  0.0 
H  1.43228  1.71238  -0.96874 
H  1.19005  2.14471  0.65439 
C  3.7616  -1.46594  0.37668 
C  2.60119  -0.6838  -0.20765 
H  2.75096  -0.55513  -1.30182 
C  2.52715  0.68242  0.44456 
H  2.46228  0.53679  1.54808 
H  3.42349  1.30529  0.22347 
C  -1.35057  1.35057  0.0 
H  -0.82593  1.98014  0.73318 
H  -1.09495  1.59501  -1.05504 
C  -2.65532  2.11995  0.13244 
H  -3.43622  1.69385  -0.52148 
H  -2.45188  3.16707  -0.22617 
H  -2.99162  2.19555  1.18614 
O  -3.15982  -2.93817  0.25746 
N  -1.32229  -1.32229  0.0 
C  -2.27447  -2.1334  0.16904 
49

Fe  0.0  0.0  0.0 
O  1.24172  1.37267  0.0 
C  2.52618  1.35623  -0.42008 
C  3.25582  0.15263  -0.47573 
C  4.58627  0.19275  -0.97715 
C  5.17011  1.3758  -1.39009 
C  4.45998  2.55599  -1.3243 
C  3.14126  2.56506  -0.83473 
C  2.66048  -1.13919  -0.08083 
C  1.24172  -1.37267  0.0 
C  0.9052  -2.71477  0.45617 
C  1.8291  -3.67418  0.82896 
C  3.15992  -3.39318  0.79024 
C  3.57411  -2.15621  0.32913 
C  2.44318  3.86929  -0.77619 
C  2.53394  4.76117  -1.85342 
C  1.89368  6.00348  -1.80017 
C  1.18696  6.37021  -0.65489 
C  1.10471  5.49667  0.43245 
C  1.71267  4.24058  0.37305 
H  5.20359  -0.68131  -1.07822 
H  6.19082  1.37567  -1.75455 
H  4.94055  3.46648  -1.64943 
H  -0.0634  -3.11754  0.64983 
H  1.49418  -4.63037  1.21313 
H  3.87741  -4.12123  1.14209 
H  4.63881  -2.01273  0.373 
H  3.07581  4.49682  -2.75609 
H  1.96001  6.67573  -2.64358 
H  0.70751  7.33917  -0.6071 
H  0.56513  5.78922  1.32295 
H  1.65574  3.5847  1.22406 
N  -1.32229  1.32229  0.0 
C  -2.19299  2.46235  -0.292 
H  -2.05966  0.73814  0.44008 
H  -0.82088  1.64777  0.8614 
H  -2.78399  2.74179  0.62107 
H  -2.92624  2.19031  -1.08176 
H  -1.60418  3.34798  -0.59699 
C  -1.35057  -1.35057  0.0 
F  -1.16853  -1.50859  -2.33168 
N  -3.3537  -3.3091  -0.04953 
C  -1.74788  -1.89217  -1.16733 
F  -3.20903  -3.4979  -2.33255 
C  -2.81076  -2.92973  -1.16547 
F  -3.57302  -3.17853  2.3405 
C  -2.97482  -2.73942  1.20019 
F  -1.65234  -1.25878  2.45082 
C  -2.02492  -1.79016  1.25803 
49

Fe  0.0  0.0  0.0 
O  1.24172  -1.37267  0.0 
C  2.52621  -1.35111  0.42196 
C  3.24675  -0.14808  0.50128 
C  4.5851  -0.18987  0.98068 
C  5.17484  -1.37072  1.38259 
C  4.45986  -2.54889  1.322 
C  3.14349  -2.56296  0.83015 
C  2.65719  1.14724  0.09733 
C  1.24172  1.37267  0.0 
C  0.90768  2.67072  -0.5216 
C  1.81781  3.64571  -0.88306 
C  3.15428  3.39319  -0.79347 
C  3.567  2.18268  -0.31366 
C  2.4474  -3.86582  0.7716 
C  2.53312  -4.75663  1.85696 
C  1.89897  -5.99754  1.80341 
C  1.19225  -6.37113  0.65846 
C  1.10897  -5.49705  -0.4306 
C  1.72159  -4.24213  -0.37349 
H  5.19949  0.68877  1.0843 
H  6.19438  -1.36676  1.74821 
H  4.94972  -3.46107  1.63985 
H  -0.04249  2.98836  -0.78806 
H  1.47278  4.58834  -1.29881 
H  3.86817  4.13063  -1.14046 
H  4.63949  2.03249  -0.34893 
H  3.0799  -4.48496  2.75202 
H  1.95785  -6.66935  2.65048 
H  0.71157  -7.33809  0.61367 
H  0.57525  -5.79414  -1.32194 
H  1.66273  -3.58699  -1.22919 
N  -1.32229  1.32229  0.0 
C  -2.35072  2.37352  -0.23245 
H  -2.0464  0.68966  0.37464 
H  -0.92881  1.60798  0.93098 
H  -2.94486  2.56454  0.69873 
H  -3.04981  2.06665  -1.03874 
H  -1.96526  3.37471  -0.49601 
C  -1.35057  -1.35057  0.0 
F  -1.1907  -1.48335  -2.33411 
N  -3.31371  -3.32949  -0.04045 
C  -1.74684  -1.89334  -1.16682 
F  -3.20249  -3.50259  -2.32603 
C  -2.79443  -2.94336  -1.15343 
F  -3.50044  -3.21931  2.35662 
C  -2.91774  -2.77781  1.21634 
F  -1.58386  -1.29008  2.45029 
C  -1.97222  -1.82344  1.2633 
17

Fe  0.0  0.0  0.0 
O  1.03704  1.45899  0.0 
C  3.20897  2.43842  -0.28636 
F  3.03411  2.60438  -1.64945 
F  2.76329  3.57972  0.35835 
F  4.55635  2.28671  -0.01561 
C  2.40075  1.22843  0.22895 
C  2.99286  -0.12874  -0.1084 
H  4.07269  -0.13434  -0.24545 
C  2.37594  -1.32789  -0.14051 
C  3.20122  -2.57375  -0.3247 
F  3.96521  -2.47769  -1.47337 
F  4.04102  -2.72255  0.76563 
F  2.38809  -3.68597  -0.41678 
O  1.03704  -1.45899  0.0 
Br  -1.62635  1.62635  0.0 
I  -1.7607  -1.7607  0.0 
17

Fe  0.0  0.0  0.0 
O  1.03704  -1.45899  0.0 
C  3.19807  -2.42408  0.28358 
F  3.01361  -2.55456  1.64996 
F  2.75383  -3.58132  -0.33214 
F  4.54849  -2.28385  0.02025 
C  2.39331  -1.2301  -0.26331 
C  2.98581  0.12548  0.10816 
H  4.0655  0.13489  0.23989 
C  2.36956  1.33032  0.15446 
C  3.18715  2.57287  0.33929 
F  3.94527  2.48718  1.49391 
F  4.03533  2.7168  -0.74699 
F  2.37487  3.68755  0.4136 
O  1.03704  1.45899  0.0 
Br  -1.62635  1.62635  0.0 
I  -1.7607  -1.7607  0.0 
