31

Ru  0.0  0.0  0.0 
F  2.70595  -2.97723  -2.07951 
F  4.5982  -2.44978  -0.98267 
F  2.9617  -3.56469  0.07872 
O  1.28035  1.37662  0.0 
O  1.28035  -1.37662  0.0 
O  5.28009  6.22574  -0.44217 
C  2.64319  1.17902  -0.1422 
C  3.20946  -0.13422  -0.54847 
H  4.2234  -0.14356  -0.91831 
C  2.55332  -1.29896  -0.44802 
C  3.22283  -2.58593  -0.85827 
C  3.37591  2.50419  -0.27793 
C  4.69726  2.61877  -0.73981 
H  5.26458  1.75716  -1.05041 
C  5.31481  3.8752  -0.80367 
H  6.34044  3.94539  -1.14552 
C  4.64055  5.02909  -0.39768 
C  3.31092  4.9176  0.0454 
H  2.73973  5.78458  0.36063 
C  2.69286  3.68295  0.10341 
H  1.66893  3.65559  0.45762 
C  4.7451  7.41673  0.01084 
H  4.52597  7.34136  1.10141 
H  3.80725  7.64121  -0.54062 
C  5.72286  8.54631  -0.22294 
H  6.66765  8.357  0.33308 
H  5.2759  9.49794  0.1296 
H  5.94483  8.62719  -1.30891 
Cl  -1.58392  1.58392  0.0 
Cl  -1.58392  -1.58392  0.0 
