68

Pd  0.0  0.0  0.0 
C  -0.0029017729013096627  3.1127486379810234  1.5865314973367028 
H  -0.8624788479770717  3.137249884404355  2.0133763297148204 
H  0.3121771905251539  4.01002625804324  1.4524010781858285 
H  0.6160797827415884  2.635801969530335  2.142087767418938 
C  1.5781973888317833  2.348422156916937  -0.6191669773218583 
H  1.5784106362917587  2.171547327813323  -1.5724351973707003 
H  1.9278130927802832  3.2431024116400393  -0.48255983489804344 
C  2.481602587403329  1.3621213848826148  0.06064953783381721 
H  3.3503833699063597  1.3688151861612505  -0.3712530379606134 
H  2.6043907286106935  1.6212130112085996  0.9877847014138643 
C  2.568016935010861  -0.9848057714522277  -0.3224763075298271 
H  3.467021599234468  -0.895631002589105  -0.544743993670682 
C  1.9415688917738374  -2.300234633098517  -0.3568277132136346 
C  2.5743874635944435  -3.455013002801275  -0.7627418076050128 
H  3.474089271774255  -3.43430515035379  -0.9995520295233058 
C  1.8872030820646208  -4.623014834186157  -0.8188670039345888 
H  2.301123350368134  -5.404368246097279  -1.1058815456958007 
C  0.5519335485722017  -4.628332811425658  -0.4364384850647018 
H  0.0602214080595862  -5.416518084919746  -0.45103627666320617 
C  -0.03407352003135955  -3.442754187830584  -0.03644110654695517 
H  -0.9290719384200143  -3.4492316467382227  0.21795530382061692 
N  0.633050122509539  -2.2951480265903283  1.2215972083153754e-14 
N  1.9145664422355968  0.010217537105761232  5.8829307431021555e-15 
S  -0.1476165647451353  2.284930489484567  -1.809890282625591e-14 
F  -0.4212414696419389  -1.688820388623419  -4.3164153578838 
F  -1.6959474377900632  -0.10617529911003376  -5.0252672926393895 
F  0.3637031826777346  0.2889369003914428  -4.554488956889131 
O  -1.9734210105345764  1.9984014443252818e-15  -0.026578989465423364 
O  -0.0265789894655033  0.0  -1.9734210105344965 
O  -8.226327128938838  0.5817577140256205  0.4974359402774682 
C  -2.807769072830216  0.04021277316130551  -0.9752726933647798 
C  -2.391906247446294  -0.020122543514244588  -2.3468903478244325 
H  -3.038089945609843  -0.00804690066882724  -3.0168565612095155 
C  -1.062840668633334  -0.09388920743583605  -2.703394550476435 
C  -0.7238446430562638  -0.38931601031982765  -4.165350503568277 
C  -4.244152096742856  0.13558866687492926  -0.6252536402920505 
C  -5.291206310277702  0.0494746466056047  -1.5443541948735295 
H  -5.10449987069918  -0.11279095878553669  -2.4408274006789052 
C  -6.606382069027814  0.20180187649114403  -1.1319818405244542 
H  -7.295011817643374  0.1349159893469589  -1.7530310877042756 
C  -6.903554520209355  0.45361924067013726  0.1983710522663258 
C  -5.875586372369938  0.5491405879833052  1.1254009381033647 
H  -6.064757965697907  0.7296021782928676  2.0182728733217576 
C  -4.567730336535179  0.37187423593674596  0.7125071987917013 
H  -3.8846399160927634  0.4108169757563508  1.3435757453974846 
C  -8.571421317869174  0.8742266197014226  1.8565201613540268 
H  -8.23085895351218  1.7478174165471754  2.1073334099075463 
H  -8.184358993676977  0.21296541967386162  2.4502558959439455 
C  -10.079793549328077  0.8534677520485002  1.9649711677003263 
H  -10.452486965414753  1.5180248214264673  1.3826425241102633 
H  -10.338241708006148  1.0413508453276772  2.871421349748856 
H  -10.406902057082371  -0.012713889441796439  1.7130141711712392 
Si  0.016684337975312435  -0.02106616865830091  4.9808436547279005 
C  -1.8819775422363494e-16  1.1675121834686651e-16  1.95 
C  0.0476574529197695  -0.036384839837538985  3.1687810552396996 
C  1.7298625654430912  -0.3534250843624873  5.644837880668381 
C  -1.1716504626620814  -1.314911441949546  5.609731586219664 
C  -0.5495161570564796  1.6627415841902395  5.572872235856297 
H  2.027362296558513  -1.2245772262975188  5.3734106057156605 
H  1.7227493451165894  -0.29325420389252654  6.603247228097786 
H  2.3312316940302615  0.3166706157142969  5.311334291600869 
H  -2.0583314615178274  -1.0701496814794917  5.3330335253667265 
H  -1.1493671176271198  -1.3639139191183802  6.567876496849246 
H  -0.962903055746986  -2.179982035222686  5.250923937527107 
H  -1.386968457554075  1.8674615910093668  5.150344777341158 
H  0.08373646554868108  2.3462387885003366  5.342674999417699 
H  -0.6805474454276514  1.6645520214042424  6.523529094972606 
