49

Co  0.0  0.0  0.0 
S  1.4202931123539255  -1.388800732646696  2.430392147838839e-16 
N  1.4202931123539253  1.388800732646696  2.7401017266113505e-16 
N  2.730800353665248  0.9481271747967721  0.2185415884505953 
N  3.7953066261046997  4.590854292573278  2.045077140076354 
H  4.569468881389478  4.7173418734555455  2.444777771017774 
N  3.9765506745359867  -0.993082166202213  0.4679071082579337 
H  3.952156093613095  -1.8712599287353084  0.4090001323216166 
C  1.2108114344426557  2.6251494539839606  0.36445248780491624 
H  0.3353669988244601  2.9534669291130555  0.19389585301747733 
C  2.1037529855921764  3.5619444667001394  0.9829126323419778 
C  3.3685847145236583  3.4127758565963733  1.5235714556750803 
H  3.8665440607384554  2.6032988858738992  1.5286215435272728 
C  2.835901151145313  5.556916563755356  1.8557386262538813 
C  1.7479859847629398  4.9519237845545785  1.1906002512745466 
C  2.8568498773604034  6.913184004232848  2.1782231542092645 
H  3.603680850874982  7.308229299143109  2.6122146771317287 
C  1.7479770960795797  7.653880898912331  1.8393188976016988 
H  1.7264937912142504  8.578674319457516  2.0539189370434343 
C  0.6512033084167322  7.078446276641504  1.1873091245248186 
H  -0.09995457303574695  7.618149872974988  0.9722910433396774 
C  0.6433030724500521  5.735403263951431  0.8497401207107219 
H  -0.09860594153801339  5.354648680108248  0.3962411660860423 
C  2.8006902495452968  -0.3547803967967415  0.23003821135339209 
C  5.226075679708817  -0.43886787403866945  0.7953750147915801 
C  6.113432072569241  -1.2540083138356521  1.5039442389732052 
H  5.862525873828933  -2.141320943381543  1.7325674374506308 
C  7.350291508195656  -0.7727132984404939  1.8726457776975955 
H  7.944860808335712  -1.331242961311381  2.3592849284286888 
C  7.738735805949206  0.5207898714321855  1.5395464275449977 
H  8.588241088078874  0.8522256592883679  1.8065858706279156 
C  6.87500140118035  1.3132273134132681  0.8196063824266627 
H  7.139454174345264  2.193347179616528  0.5800230527066226 
C  5.6234596920930136  0.8490891042033923  0.43413776740556165 
H  5.042134204425658  1.404721583982842  -0.07070763942949448 
N  -1.2869343417595165  1.2869343417595165  0.0 
C  -2.080978148557203  2.106930891925906  0.01571466198988808 
C  -3.1019268339654014  3.150761228662007  0.05804927988911279 
H  -2.814965593905497  3.886344516349588  -0.5675252828753986 
H  -3.479173546004949  3.3566720904874874  0.9878687275442141 
H  -3.8905970674497556  2.8669324624578176  -0.4941073865478165 
C  -2.1316915356275326  -2.135817404516872  0.01453263623287282 
C  -2.1799031250549747  -3.4947469661582167  -0.45305075648134985 
C  -3.580785644500149  -3.5876864216097095  0.007150845355629043 
C  -3.5061714410583606  -2.1900036309950046  0.46733564243636694 
O  -1.2303657992645929  -1.2303657992645929  0.0 
O  -1.382176958302675  -4.258831611606258  -1.0341706558732247 
O  -4.448922585286842  -4.461881177358941  -0.010788247767076653 
O  -4.261122394188917  -1.3618064717744547  1.0089905360967824 
