63

Pd  0.0  0.0  0.0 
P  1.5848280632295717  -1.4072739640880165  1.2038122208414895e-15 
N  1.584828063229573  1.4072739640880165  -3.94385960489411e-16 
C  2.815033582805295  1.0132205145456807  0.05127941603866758 
C  3.102763577935602  -0.4085621028117317  -0.2978000861991749 
C  3.958735280649808  1.878402576511156  0.45839744069584076 
C  5.011506019228575  2.0867878074494985  -0.4299760604393062 
C  6.018465932240149  2.971349216078064  -0.09822556993054357 
C  6.036282536595747  3.606704337267586  1.099117475561244 
C  5.022909555837705  3.3464838191985864  2.0314101033587186 
C  3.994128432420185  2.5108778959680937  1.690630480784296 
C  1.2315461742784792  2.7588993821228476  0.3425574933661755 
C  1.7315950315020772  3.851035774339845  -0.35567065071326653 
C  1.3010609531667845  5.116162796819633  -0.02426424705846313 
C  0.4068939224885968  5.330879559661059  0.9925444778269399 
C  -0.09561539090704696  4.230969300891297  1.6957849222011852 
C  0.314818074717673  2.956186972943818  1.3643574238729868 
C  1.5364377997990184  -1.7504864034036285  1.7836202241240264 
C  0.3949629233628227  -1.4496113848890968  2.501061942801485 
C  0.3297120136306326  -1.7103633915090732  3.85322986869783 
C  1.4234675564210661  -2.2582457581807684  4.496759382322092 
C  2.5688919078182293  -2.526987140208033  3.8069576899404773 
C  2.635435321589248  -2.2910826621378084  2.4567028135152413 
C  1.8675219752209642  -2.9991794474327538  -0.8176056043227528 
C  2.064691782766058  -3.0087988963428143  -2.1964002167271244 
C  2.1834489401282076  -4.2096904804454125  -2.8869322947704528 
C  2.112420865695586  -5.401088774441802  -2.197550776520291 
C  1.8843413600839933  -5.407562183481173  -0.847420784965618 
C  1.7611771854730274  -4.209693166489562  -0.15463431409312442 
H  3.83056055513333  -0.7426851250511959  0.24853086294379342 
H  3.3644592016750177  -0.4734518913890244  -1.2293931013372494 
H  5.037437101168727  1.6331040072139478  -1.2408422876267962 
H  6.700295509054113  3.1375025422724616  -0.7103884978968483 
H  6.714702672325233  4.21022898966205  1.3008139142729331 
H  5.050676094420794  3.737050556043028  2.8754341630903144 
H  3.3054441527025133  2.3641035113983806  2.297774477628496 
H  2.3504661412877397  3.7277368329624663  -1.038286231056931 
H  1.6248906008777473  5.844762050529604  -0.5031856672900885 
H  0.13838510882804078  6.193355908242244  1.2119870104514756 
H  -0.7074118259226281  4.357698199848493  2.3849146692527516 
H  -0.024436543062100746  2.2271748714054755  1.828939741794957 
H  -0.33442821238301446  -1.0669653161479846  2.0698656218844462 
H  -0.445078677291328  -1.518797003670223  4.329919782909499 
H  1.3769704296835252  -2.4464995643056358  5.405933937445951 
H  3.3091148375624444  -2.870225878596139  4.254010698822762 
H  3.413595876694556  -2.493107319208931  1.9890886152561222 
H  2.118984926551894  -2.20376785127962  -2.658417663391568 
H  2.311619714753599  -4.208319709686323  -3.8073690136813565 
H  2.219798724053537  -6.205422521022226  -2.6522970130592656 
H  1.8121513885753775  -6.21618390820515  -0.39268898014214737 
H  1.6041477762894938  -4.221233748078112  0.7614822012192489 
Br  -1.654629867976521  1.654629867976521  0.0 
C  -1.3788582233137676  -1.3788582233137676  0.0 
C  -2.618821778986925  -1.1522995256591737  0.5874691967409313 
H  -2.8106553971707884  -0.30966242518610043  0.9782000501948407 
C  -3.5854032518711887  -2.161278806785389  0.6049610958635797 
H  -4.421117162155692  -2.007227978208148  1.0287619599160838 
C  -3.3399450833386255  -3.3715361338635086  0.016423527177974573 
H  -3.9908757182151104  -4.061238805801311  0.045080339651694 
C  -2.164680252095028  -3.57422256025893  -0.6007549227026177 
H  -2.0132444416912625  -4.3986257169530365  -1.0474288760065327 
C  -1.1561711193052586  -2.601214672555715  -0.5998012209931929 
H  -0.3196784027493984  -2.7832859823079534  -1.0129111498427692 
