51

Fe  0.0  0.0  0.0 
N  1.5655330174766142  2.1541116984418838  -0.501900448870479 
C  0.6927435365294315  3.2113132623568883  0.04901797994055301 
C  -0.661087998654989  3.095675644228761  -0.6242452342735081 
N  -1.1909786683739116  1.716543378320544  -0.5300887619750101 
C  -1.9757163165912746  1.4266864545716567  0.7094765397437472 
C  -1.4381185544969024  0.2064434784447678  1.4633164600213324 
C  -1.6270194667958555  -1.1271537751802927  0.7319130689597928 
N  -0.8074478251232999  -1.2090507653585612  -0.501315010985637 
C  0.05422765562650358  -2.4064015115104573  -0.6050614642459382 
C  1.4078308777092792  -2.148465420376691  0.03718300638635978 
N  1.9744975825561715  -0.9033270521636216  -0.5294237263848443 
C  3.2313256140447395  -0.5172726788005764  0.10355315318646947 
C  3.7381136016983243  0.880476052749017  -0.2890696543801981 
C  2.8581998655146075  2.0463073941919174  0.19116499679010163 
C  -2.117182682648471  0.11816258285325691  2.832374896806011 
N  0.0239289109410401  0.395834439201639  1.5608274993454914 
C  5.15411973995529  1.045174448681406  0.2820962101424412 
N  3.8631487508243767  0.9324939868927316  -1.7968349331986373 
H  1.8451598239026128  2.3614600037799613  -1.3841252611498802 
H  0.5954605383581786  3.097033305341956  0.9857650641054714 
H  1.0665886056583702  4.067145189096231  -0.12885148753940667 
H  -0.5661692634691619  3.3279836401066127  -1.5378998455801764 
H  -1.270639979209191  3.6927254429894143  -0.20737814418085865 
H  -1.7863919010245772  1.6085815260517244  -1.2595488711236669 
H  -1.9297613128700395  2.1845794399154927  1.278406817018203 
H  -2.880471655191009  1.262059820325722  0.4754080271835679 
H  -2.543515057516663  -1.214705136740749  0.49767479011060994 
H  -1.3810342661834412  -1.8384206612623928  1.3109593001389122 
H  -1.4214502482999158  -1.250846604773632  -1.2215549933115517 
H  -0.3675055240644221  -3.134526498562682  -0.16267722133263252 
H  0.18323025952169267  -2.6251511497000855  -1.519324880324788 
H  1.9933342066795627  -2.875844653519656  -0.14317930385906882 
H  1.3010361618354094  -2.053576651837678  0.9739685155967495 
H  2.277367898345554  -0.9762349716947765  -1.4248408733522664 
H  3.1113635839453373  -0.5422626833107218  1.043628283699458 
H  3.8926500061662366  -1.1511108856529224  -0.14860367483794776 
H  3.3372751940367267  2.8559906733446137  0.055828279444215576 
H  2.687801318443849  1.929362051697602  1.1164826352392239 
H  -2.003443109572114  0.9366550896290642  3.2970247820618486 
H  -1.7290935278459243  -0.5893569439308026  3.3313256630584585 
H  -3.0443439082637758  -0.051154972610207905  2.713739964651087 
H  0.25498241871701083  1.214455521904654  1.9820933530513933 
H  0.4539527809384454  -0.32452791792499364  2.0064179679008856 
H  3.0060481168530995  0.8333423940875817  -2.1902494155073553 
H  4.43171799962152  0.23195336522342083  -2.093276422726382 
H  4.233544765875927  1.7702258489121203  -2.0511899005011425 
H  5.108547637816972  1.0133854915849603  1.2274866827586055 
H  5.5141642430373325  1.8825413498085062  0.010246014819351298 
H  5.712778571435652  0.34411751931242235  -0.03333467260800814 
N  -3.287726323582693e-18  -6.8303262235240135e-18  -1.8699999999999997 
