51

Fe  0.0  0.0  0.0 
N  1.56553  2.15411  -0.5019 
C  0.70411  3.22175  0.02374 
C  -0.67464  3.09708  -0.63165 
N  -1.19098  1.71654  -0.53009 
C  -1.96902  1.44274  0.71142 
C  -1.41422  0.20708  1.4961 
C  -1.62998  -1.17549  0.74324 
N  -0.80745  -1.20905  -0.50131 
C  0.05574  -2.4129  -0.58817 
C  1.42345  -2.14288  0.04245 
N  1.9745  -0.90333  -0.52942 
C  3.23405  -0.51902  0.11777 
C  3.76194  0.88853  -0.33 
C  2.86368  2.07418  0.18074 
C  -2.07688  0.13829  2.88118 
N  0.02393  0.39583  1.56083 
C  5.1563  1.06242  0.31405 
N  3.92287  0.9467  -1.80183 
H  1.72816  2.37644  -1.51079 
H  0.60768  3.16864  1.12109 
H  1.13837  4.22265  -0.19119 
H  -0.5319  3.33415  -1.70931 
H  -1.38948  3.84709  -0.22516 
H  -1.86565  1.59191  -1.32281 
H  -1.91236  2.32401  1.38956 
H  -3.04925  1.29188  0.48307 
H  -2.71645  -1.33798  0.54137 
H  -1.31159  -1.98323  1.44027 
H  -1.58371  -1.29011  -1.22204 
H  -0.43053  -3.31765  -0.15919 
H  0.23539  -2.6336  -1.66358 
H  2.10099  -3.00459  -0.15129 
H  1.3052  -2.05109  1.13845 
H  2.18793  -1.10141  -1.53541 
H  3.10778  -0.51292  1.22412 
H  3.99787  -1.29377  -0.12746 
H  3.3987  3.03645  0.01675 
H  2.70895  1.95544  1.27636 
H  -1.91966  1.08177  3.44365 
H  -1.65818  -0.70232  3.47344 
H  -3.17054  -0.02748  2.76176 
H  0.2791  1.33004  1.92729 
H  0.45718  -0.34392  2.15607 
H  3.01844  0.80599  -2.30326 
H  4.57194  0.1943  -2.12562 
H  4.3133  1.87351  -2.08538 
H  5.09054  1.0214  1.42173 
H  5.60231  2.03589  0.01978 
H  5.84358  0.25885  -0.0299 
N  0.0  0.0  -1.87 
