59

Pd  0.0  0.0  0.0 
P  1.5133013967812217  1.4839201065084333  -7.198667839293923e-16 
N  1.5133013967812228  -1.4839201065084329  1.0547118733938987e-15 
C  2.0211904484530514  1.5067462343110252  -1.742645867375668 
C  1.0936581109081405  1.2327803023063895  -2.718959157723256 
H  0.22740654376187797  0.9992705847143049  -2.4729308174721116 
C  1.424718920016291  1.2964833174386683  -4.0439005928575735 
H  0.7847339837139771  1.1127198292266083  -4.692554500350803 
C  2.6877645935083345  1.6290488193383459  -4.411067072290554 
H  2.9091455235251367  1.6882984714014027  -5.312350447570125 
C  3.6404902733804003  1.877463069123907  -3.4553556517164585 
H  4.511480370428134  2.0857293926574387  -3.705918017858267 
C  3.3022813543857255  1.8176627438834891  -2.129891209261052 
H  3.947329745936689  1.987551148855087  -1.483485297767555 
C  1.1737827083832244  3.2150437254506503  0.4266947107346277 
C  1.0682162628281635  4.171538784567859  -0.5164740214958572 
H  1.2514087566237047  3.9698179077584443  -1.4061860356196527 
C  0.6791609162062965  5.478376256136938  -0.15252454674987015 
H  0.5778055572012155  6.134260377344825  -0.8031685436854599 
C  0.45669441630422414  5.770150825469213  1.1396549752641216 
H  0.22961688666020796  6.63948254308798  1.380937942488871 
C  0.5575423767086308  4.830033784207147  2.0891590392948975 
H  0.40394572533400375  5.053699393658954  2.979312438341977 
C  0.8896821367175491  3.5317227386528556  1.753517267739352 
H  0.9223887873014839  2.873484417252735  2.410048757652773 
C  3.007115162030858  1.032793511441845  0.927887864978518 
C  3.7869177413671395  2.0017073253957705  1.5555738759663023 
H  3.5473422209855134  2.8973974061288645  1.4865638092353122 
C  4.909679770273957  1.6521518252546639  2.2774243374652228 
H  5.398065801209728  2.3107799183126154  2.7144274264950616 
C  5.307976644779242  0.3626699410160905  2.3601722074066585 
H  6.064940145209841  0.13273683444013984  2.850329575520398 
C  4.571105813722927  -0.615484218789246  1.6999877195596025 
H  4.859194734752325  -1.5004432164066397  1.7188245482771598 
C  3.420818798907992  -0.29144918624872074  1.0212855011790893 
C  2.7341452892915346  -1.4002507469145817  0.3346621107706318 
H  3.2642548773122604  -2.1330193779418334  0.11705581933825498 
C  1.1224663725979263  -2.7059316029809324  -0.7981528527548485 
H  0.1509290838636148  -2.663702216961326  -0.9277179543648528 
C  1.4111266495065125  -3.9815054978948234  -0.022131736322259517 
H  1.1748767379231477  -4.741125732876521  -0.5577229310624421 
H  0.8954074364720019  -3.9871619547102446  0.7879865438093412 
H  2.3455807218929525  -4.018258915252533  0.1943424490046427 
C  1.7351636069051937  -2.6888678878328314  -2.1404041029675707 
H  1.403219454173191  -1.9364405367221644  -2.634553777426255 
H  1.51230293169261  -3.4997914070453273  -2.60374288337756 
H  2.689118950782505  -2.6205568988817394  -2.056120352004194 
Br  -1.654629867976521  1.654629867976521  0.0 
C  -1.35204078  -1.31992066  -0.4819701 
C  -1.63807002  -1.59921746  -1.81393823 
H  -1.15796809  -1.15933936  -2.50351594 
C  -2.63068217  -2.5263265  -2.14228996 
H  -2.83682226  -2.69439953  -3.05388981 
C  -3.31015444  -3.19615732  -1.16198741 
H  -3.99601236  -3.81199015  -1.38686634 
C  -2.99747104  -2.9701089  0.1242356 
H  -3.43865917  -3.46858118  0.80170842 
C  -2.03898543  -2.01594063  0.49125628 
H  -1.86191301  -1.84921651  1.41015686 
