93

Pd  0.0  0.0  0.0 
N  0.24866  2.00619  0.0 
N  1.89761  -0.0193  0.0 
N  0.25374  -1.98688  0.0 
C  -0.69427  3.06541  -0.02962 
C  -0.23515  4.33632  -0.03892 
C  1.25446  4.62477  -0.04879 
C  2.1423  3.60529  -0.1177 
C  3.56819  3.75487  -0.16107 
C  4.42853  2.61732  -0.20773 
C  3.90285  1.30767  -0.15409 
C  4.62923  0.13709  -0.08594 
C  3.92412  -1.20322  -0.01033 
C  2.57957  -1.22994  0.00949 
C  2.51401  1.21521  -0.11714 
C  1.64553  2.30621  -0.11034 
C  1.70838  6.06783  0.06271 
C  6.13618  0.11695  -0.03391 
C  1.64341  -2.36935  0.0071 
C  -0.79277  -2.92054  0.31659 
C  -0.3398  -4.34932  0.05376 
C  0.9578  -4.67967  -0.08089 
C  2.00677  -3.65177  -0.01958 
H  -1.76245  2.8648  -0.02126 
H  -0.9392  5.15745  -0.04155 
H  4.02185  4.73449  -0.1459 
H  5.50135  2.78445  -0.20137 
H  4.49166  -2.1238  -0.00449 
H  -1.68146  -2.7191  -0.30976 
H  -1.08013  -5.14296  0.04304 
H  1.248  -5.71702  -0.21252 
H  3.05251  -3.94355  -0.03213 
H  2.24842  6.19575  1.02699 
H  0.84831  6.75634  0.05988 
H  2.38464  6.32904  -0.77678 
H  6.50025  -0.90575  0.21313 
H  6.50567  0.78458  0.76913 
H  6.56076  0.41777  -1.01122 
S  0.55371  0.0  -1.91655 
S  -1.91371  0.0  -0.56345 
S  -1.05201  2.94239  -4.89566 
S  -3.74815  2.6278  -2.25871 
N  -1.79072  0.29455  -3.26165 
C  -1.19006  -0.48828  -2.17654 
C  -1.09423  0.15146  -4.56389 
C  -0.35325  1.41403  -4.85821 
C  1.00074  1.53183  -5.14048 
C  1.39707  2.8571  -5.36176 
C  0.35945  3.77449  -5.25154 
C  -3.25261  0.11156  -3.37724 
C  -3.84159  1.47096  -3.47519 
C  -4.49267  2.00913  -4.57047 
C  -4.87982  3.33776  -4.3654 
C  -4.53878  3.8334  -3.11258 
H  -0.40548  -0.72463  -4.57134 
H  -1.8035  0.004  -5.40744 
H  1.68065  0.69107  -5.18854 
H  2.41383  3.1415  -5.59489 
H  0.44111  4.84505  -5.37531 
H  -3.53077  -0.52375  -4.24773 
H  -3.7065  -0.38039  -2.49149 
H  -4.66102  1.46883  -5.49219 
H  -5.38885  3.9253  -5.11415 
H  -4.73963  4.83053  -2.74815 
S  0.54835  1.27483  3.05638 
S  -0.83795  -1.37188  2.59518 
N  0.0  0.0  1.91 
O  0.1104  2.64516  2.54449 
O  -0.382  1.15139  4.2754 
O  -1.12566  -2.86316  1.69004 
O  0.15231  -1.45317  4.00316 
F  6.28231  0.62317  4.18498 
F  -6.18456  -0.47968  4.45641 
C  2.2432  1.18906  3.53532 
C  2.64725  0.39524  4.59494 
H  1.91123  -0.09721  5.21641 
C  4.00779  0.21769  4.83129 
H  4.33159  -0.39732  5.65634 
C  4.95642  0.82762  3.99618 
C  4.54144  1.65918  2.96585 
H  5.24637  2.1297  2.30795 
C  3.1802  1.85073  2.76998 
H  2.8487  2.49241  2.00559 
C  -2.38308  -1.38244  3.2764 
C  -2.62556  -1.26631  4.63331 
H  -1.8219  -1.32883  5.35801 
C  -3.9237  -0.98578  5.03461 
H  -4.1312  -0.86352  6.0831 
C  -4.93988  -0.80484  4.07502 
C  -4.65199  -0.92134  2.71379 
H  -5.39208  -0.75079  1.94382 
C  -3.38853  -1.2203  2.32674 
H  -3.14864  -1.27065  1.27669 
