66

Pd  0.0  0.0  0.0 
C  1.19899  2.87438  -0.01475 
O  0.10672  2.05127  0.0 
C  0.97618  4.2591  -0.00754 
H  -0.03149  4.63001  0.03988 
C  2.06169  5.16235  -0.0295 
O  1.85361  6.49119  0.00033 
H  0.96694  6.8642  0.07492 
C  3.36815  4.69189  -0.08616 
H  4.21145  5.36632  -0.10565 
C  3.60458  3.33033  -0.09473 
H  4.63282  2.98085  -0.13582 
C  2.54429  2.41995  -0.05306 
C  2.97921  1.02289  -0.04122 
H  4.05636  0.73134  -0.08197 
N  1.99619  -0.02586  0.0 
N  2.52475  -1.29808  0.31363 
H  3.4823  -1.40936  -0.09596 
C  1.69091  -2.31375  -0.31738 
N  0.29709  -2.02541  0.0 
H  -0.47613  -2.66266  -0.28565 
S  2.25161  -3.96124  0.30342 
C  1.12099  -5.01361  -0.66766 
H  1.24111  -6.07609  -0.36156 
H  0.09434  -4.73792  -0.37945 
C  1.32707  -4.90496  -2.177 
H  1.61014  -3.87844  -2.48763 
H  0.37132  -5.16364  -2.67889 
H  2.10666  -5.61788  -2.52004 
O  -1.919  0.0  -0.081 
N  -0.081  0.0  -1.919 
N  -1.35616  -0.22265  -3.77135 
C  0.79181  0.03531  -3.01997 
H  1.86727  0.13575  -2.97671 
C  0.00308  -0.08798  -4.16427 
H  0.3599  -0.09549  -5.18717 
C  -1.33435  -0.44825  -2.35554 
C  -2.42969  -0.04631  -1.40305 
H  -2.90464  0.93261  -1.63081 
H  -3.1972  -0.849  -1.46917 
C  -2.51213  -0.35364  -4.62837 
H  -3.43708  -0.3995  -4.01231 
H  -2.43806  -1.28463  -5.22358 
H  -2.59399  0.52763  -5.3007 
N  0.0  0.0  1.91 
N  1.08459  0.75024  2.27754 
N  1.1561  0.95129  3.47808 
N  0.11009  0.37053  4.11186 
N  0.11056  0.43477  9.72316 
O  -0.92454  0.3701  10.31678 
O  1.13171  0.45162  10.3304 
C  -0.76716  -0.27213  3.11932 
C  -0.8292  -1.78753  3.39767 
H  -1.358  -1.95889  4.3596 
H  0.18164  -2.25308  3.49258 
H  -1.38773  -2.31197  2.59829 
C  0.08126  0.38823  5.50488 
C  -1.11304  0.28647  6.19594 
H  -2.03093  0.20526  5.63884 
C  -1.10268  0.32306  7.58083 
H  -2.05041  0.26244  8.08737 
C  0.10859  0.42804  8.2968 
C  1.30165  0.52658  7.5964 
H  2.27366  0.61116  8.09759 
C  1.30221  0.52169  6.20611 
H  2.25038  0.59259  5.67221 
