77

Pd  0.0  0.0  0.0 
O  0.06301  -2.03226  0.0 
O  4.07684  -6.95306  -0.46681 
O  5.6033  -5.35104  -0.36714 
N  2.05923  0.02577  0.0 
N  0.27776  2.00649  0.0 
C  2.49417  -2.4587  -0.11973 
C  1.13349  -2.86774  -0.06432 
C  0.85092  -4.23602  -0.08388 
H  -0.17779  -4.57081  -0.03581 
C  1.87412  -5.1825  -0.17605 
H  1.61802  -6.23142  -0.20068 
C  3.21549  -4.77932  -0.2406 
C  3.50841  -3.42157  -0.19902 
H  4.54207  -3.09683  -0.2434 
C  2.99646  -1.07426  -0.09411 
H  4.08395  -0.8286  -0.11244 
C  4.31794  -5.76223  -0.35859 
C  2.69019  1.35363  0.04014 
H  3.29956  1.50761  -0.87591 
H  3.34022  1.43979  0.93695 
C  1.63854  2.43587  0.10126 
C  1.90756  3.9098  0.13829 
H  2.92742  4.27659  0.18471 
C  0.874  4.76448  0.11995 
H  1.05717  5.83313  0.15434 
C  -0.52283  4.26729  0.05827 
H  -1.34421  4.97695  0.05962 
C  -0.78196  2.95084  0.00544 
H  -1.79768  2.61291  -0.02567 
O  -1.97317  0.0  -0.02683 
N  -0.02683  0.0  -1.97317 
C  1.23289  -0.28799  -2.68408 
C  1.16621  -1.27911  -3.79073 
C  0.02353  -1.43072  -4.44087 
C  -1.19162  -0.72604  -3.9685 
C  -1.21124  -0.06963  -2.7729 
C  -2.45599  0.60435  -2.31054 
C  -2.99676  0.03077  -0.99363 
C  -3.53183  -1.3994  -1.21659 
C  -4.1541  0.95667  -0.54407 
H  2.20996  -0.28526  -2.21302 
H  2.07334  -1.79389  -4.10824 
H  0.0028  -2.07207  -5.31647 
H  -2.08098  -0.80044  -4.58374 
H  -3.24921  0.54794  -3.09075 
H  -2.18963  1.67508  -2.19347 
H  -2.70592  -2.07688  -1.52283 
H  -4.3204  -1.41144  -1.99783 
H  -3.96761  -1.79194  -0.27286 
H  -4.59388  0.60845  0.41157 
H  -4.94915  0.9961  -1.31955 
H  -3.80524  1.99647  -0.39762 
H  -2.40133  -0.4072  0.76815 
S  1.27434  -1.52741  8.54059 
S  -1.09991  -0.05512  7.32647 
S  0.79291  -0.04148  11.32937 
S  -1.65357  1.41252  10.11222 
N  0.0  0.0  1.91 
C  -1.11645  0.45193  2.72545 
H  -1.95176  1.0357  2.29535 
C  -1.01645  0.18742  4.2027 
H  -1.84694  0.5037  4.81952 
C  0.05406  -0.41642  4.75527 
C  1.16105  -0.83445  3.86111 
H  2.05251  -1.3286  4.22568 
C  1.10299  -0.63913  2.56599 
H  1.9457  -1.01428  2.04828 
C  0.16521  -0.67241  6.21763 
C  1.19412  -1.33778  6.77804 
H  2.0128  -1.76566  6.22775 
C  -0.05685  -0.35002  8.7462 
C  -0.27434  0.26991  9.91486 
C  -1.24273  1.70059  11.81745 
H  -1.84058  2.37202  12.41578 
C  -0.15008  1.06061  12.35459 
H  0.13586  1.21802  13.38315 
