65

Pd  0.0  0.0  0.0 
N  1.9178342317595212  -0.010176513042852942  4.805184028455755e-16 
C  0.23800950382672825  -2.050055086248992  -5.126107871511464e-15 
C  -0.678899846217492  -3.0940150545013436  0.02500836836010986 
C  -0.2212879210077856  -4.407080255021748  0.009968917300481307 
C  1.0965569425382005  -4.681727641744972  0.0022127203222783525 
C  2.0469604395136085  -3.6777600227077034  0.01578043426209239 
C  1.6081214931776084  -2.3451224582263226  0.01323074568425051 
C  2.541581007243831  -1.191996097351643  0.013864350584250151 
C  3.929419171019364  -1.2027904682363646  -0.00344035182167481 
C  4.612887059030948  0.011475637356888502  -0.00932430154783805 
C  3.9109083546404557  1.2126903901870587  -0.027484317114999005 
C  2.5435999302001377  1.20482565837162  0.006775257430018812 
C  1.6083000395518727  2.3423759394634245  0.0023647539102092745 
C  2.054393486619835  3.6560451999011434  0.023946011149786423 
C  1.1311012175852182  4.696163333648076  0.02300590918465015 
C  -0.21344803305785032  4.421522569141329  0.016133277497168284 
C  -0.6750520707942111  3.1004926469232474  -0.008680971433164614 
C  0.2441562644137506  2.060231599291845  4.643854745189912e-15 
H  -1.6110745783217013  -2.9114055694880725  0.051888748000895345 
H  -0.843275904470284  -5.122150629338209  0.004207129108272569 
H  1.3815876844629036  -5.58780776964255  -0.00932018854594065 
H  2.9740381837102827  -3.8861734572140154  0.022921619912030875 
H  4.404994504800979  -2.026440188249116  -0.016043947396900533 
H  5.562574811162853  0.017814627492752866  -0.004028014668826648 
H  4.380407000664244  2.03622967666424  -0.060783341282149024 
H  2.985742154378551  3.8447499015572966  0.041558354461421726 
H  1.4264499094373018  5.598802710447  0.020155352517284373 
H  -0.8390085890705172  5.136380374877056  0.02989984351145722 
H  -1.6064459214112017  2.918411339159296  -0.031112921767997306 
N  0.4817266978640032  -2.5788885790083804e-15  -1.8770759310867113 
N  -1.8417266978640028  2.1142748080703323e-18  -0.6029240689132889 
C  -2.9919393946166513  -0.057091735072342435  0.09837470908040347 
H  -2.947603014413556  -0.009442812944371158  1.044686706051036 
C  -0.5268357771797743  0.09976246350936781  -4.049567499495737 
H  -1.311557816829973  0.10438110422340248  -4.583072474772636 
C  -0.6234353409383474  0.006479914941016617  -2.668312942792197 
C  -4.301854046624802  -0.2692831077758306  -1.8694944521710797 
H  -5.14231826097995  -0.3632212962856066  -2.3007084142918393 
C  -1.9201704271817834  -0.0713548604336182  -1.9576586500114646 
C  -4.227590990601467  -0.18083074618338926  -0.4943364182568595 
H  -5.016913318066872  -0.20476146154396305  0.033310731102361046 
C  1.8430505999907751  0.1749005149764498  -3.8476110623035096 
H  2.7099529581652644  0.23341638489756505  -4.234667045797991 
C  0.7189133536718079  0.18587274977137372  -4.641884611845548 
H  0.7989187628880124  0.252004432246112  -5.586208287853508 
C  1.6867930694141364  0.07657295792282229  -2.478199431104938 
H  2.4654327150331565  0.061958539301643065  -1.9347355951059964 
C  -3.135214460819239  -0.2190233625371139  -2.6091576828645913 
H  -3.164812796550163  -0.28500945375044556  -3.5565412558108216 
N  0.0  0.0  1.91 
N  0.8933389644186569  -0.7371552887905777  2.6440095332211175 
H  1.5099320144974044  -1.2530758232952273  2.2871049624027764 
C  -0.7663416793182811  0.6215796836170676  2.815783703460237 
C  0.7227974541929736  -0.5849030545249028  3.9736319722808124 
C  -0.34240797293756703  0.2686789344414228  4.117570730521722 
H  -0.7222072045876803  0.5659693176153449  4.936163805077258 
C  -1.8954017951770212  1.5255593057956869  2.453865221667929 
H  -1.5634430824911671  2.249783506542984  1.88374906672765 
H  -2.2861956790337774  1.9034115917799712  3.269727465135907 
H  -2.5796062395715005  1.01652320851955  1.9700393646276917 
C  1.6119639267144956  -1.2805207201015756  4.960613966787952 
H  1.7541292634925443  -2.2073773998502064  4.675617875193471 
H  1.1889113768266206  -1.2713385424979888  5.844743842794766 
H  2.4745306529742988  -0.8171347192515566  5.005448963895911 
