39

Fe  0.0  0.0  0.0 
S  1.201517716915908  2.701247126963948  -0.9332084493771704 
O  2.4994537207317036  2.987276343296405  -1.4776294697308723 
O  0.1279681111281683  2.5424057121199444  -1.8562023490554984 
N  1.3118161828167845  1.3326808704637427  -3.9657004389661684e-16 
N  1.3118161828167845  -1.3326808704637427  4.440892098500626e-16 
C  0.804283648738214  3.964582083827355  0.21398217203060507 
H  0.701851794919343  4.797883660080613  -0.25079013602686795 
H  1.5094524575204442  4.0435651189506645  0.8602889422901902 
H  -0.01700576822764721  3.745499731502149  0.6601738757629333 
C  2.568092320593098  0.6873666778012937  0.13222642853185773 
C  2.5416051399495205  -0.7277443602552155  0.11048271145810817 
C  1.2092914164714426  -2.661864108746139  0.018720078924959253 
H  0.3702445202253616  -3.0610798263206442  -0.03164227548098416 
C  2.347532141169747  -3.455097153827775  0.11322324727829583 
H  2.267219727826122  -4.3821032416169  0.11931910364343115 
C  3.57004631638818  -2.886904879306339  0.1964439211773596 
H  4.324901496725282  -3.4263864768397525  0.2517857917732701 
C  3.7179497608398204  -1.4868895520429173  0.20026027373365432 
C  4.946328456534889  -0.8146368395925264  0.303408131518379 
H  5.741677718958053  -1.297520659914841  0.3248747761996238 
C  4.967496376359297  0.5436696500699947  0.373416626081433 
H  5.783235365273057  0.9829452808489441  0.457396755693975 
C  3.786503176722449  1.2922774204005156  0.32032916416922125 
H  3.8274350750789132  2.2167570856419614  0.41569513426337906 
O  -1.0370443565730445  1.4589856073656102  1.5655141881617505e-15 
C  -3.1473963622385916  2.4624896259169793  0.07033588653569886 
F  -3.3206453229074695  2.937016078751622  1.2720252403985706 
F  -2.605646867350778  3.4701363583988254  -0.6974794475827785 
F  -4.392409460297301  2.217436670497108  -0.5345516771505271 
C  -2.2672375079566143  1.2251304320455014  -0.0015675665856986348 
C  -2.50900772  -0.0100806  -0.01770752 
H  -3.8393991261803766  -0.014904394800209442  -0.030269733643589106 
C  -2.2625422332514593  -1.2239320823214381  -0.016999841794620576 
C  -3.1409450904669916  -2.474753437780284  -0.13568285306288752 
F  -4.1976517167236  -2.3113534605656634  0.6777016215072083 
F  -3.5914167052811097  -2.602586357487258  -1.3439088579502187 
F  -2.56024100096144  -3.458596834009411  0.30793850815393675 
O  -1.0370443565730447  -1.4589856073656107  -1.1102230246251565e-16 
