70

Pd  0.0  0.0  0.0 
C  2.7960360476125077  -1.1629357981341344  1.2300764177174621 
H  2.361528876384442  -1.1955849457921186  2.1076849017857393 
C  3.3540330364420825  0.2708061142481646  1.0970429665276396 
H  4.027508535948786  0.3873409997470918  1.7858177788037297 
H  3.8099284975612484  0.32801328956551457  0.2420162081023951 
C  2.4137894128445576  1.4321193040947304  1.1845505283300062 
H  2.9672720569199456  2.2394430447610882  1.1672406911327389 
C  3.9092199313204885  -2.2143064969506296  1.28208002069783 
H  4.322266483171058  -2.2012130970126957  2.149137872794478 
H  4.566683472748267  -2.017129165281272  0.6111482495250653 
H  3.536084540952905  -3.0838986744267043  1.118954163373945 
C  0.9792633681718089  -3.2055836862196685  0.48680656326509514 
C  1.1657396173575236  -4.317513337173347  -0.28097926612984075 
H  1.5329880334567956  -4.1957533974093195  -1.1255900746927303 
C  0.8369939946267867  -5.648201585049654  0.11889564243440406 
H  0.9557839627248799  -6.385633322052727  -0.4342102395989474 
C  0.3493708464414558  -5.734065238932964  1.3540854449731403 
H  0.0733559744837784  -6.570001807451605  1.6638203862882437 
C  0.23899928274661342  -4.678762090248826  2.1616413144366184 
H  0.017023708267098092  -4.810379333059155  3.053885252902723 
C  0.4424904868023849  -3.44390772052607  1.7010880868412108 
H  0.20477670067798526  -2.7253280890342966  2.2372018052737337 
C  2.0538139091233463  -1.67623205750431  -1.747740028481551 
C  3.3703783353216  -1.5999941155617865  -2.13878875674658 
H  4.043526423859845  -1.4783819863251555  -1.5079888907670098 
C  3.6834695961263257  -1.7156797337915792  -3.4886539759972015 
H  4.567959622029715  -1.6832986755152972  -3.7709018478090437 
C  2.712018675680422  -1.8526694603219145  -4.352432896780752 
H  2.94609409358699  -1.9260214328216703  -5.250034499309569 
C  1.4191705051126493  -1.9025937313058967  -4.052789583779564 
H  0.7703880902725933  -1.991861903092951  -4.710620771623456 
C  1.0738431423975738  -1.799345384356338  -2.6686639206216034 
H  0.1830355290451855  -1.8194853911140312  -2.403557949128655 
C  1.6729729376822218  1.4542132193279724  2.492037166517087 
H  1.0950988072334025  0.6893818427119194  2.5453328952541074 
H  1.150051280822509  2.2560532226496544  2.548138769526097 
H  2.3027185238736347  1.4301468598624623  3.2162923197708064 
C  2.0950033615074277  1.8743216767128312  -1.2674051146464198 
H  2.719946362313264  1.1459059128686042  -1.462882097248028 
C  2.929089493578118  3.1339031334849103  -1.1947486762304855 
C  4.269860583751841  3.1308613119081166  -1.3997839197276087 
H  4.709338579442143  2.3333553209178963  -1.6011940625673937 
C  4.999905673581106  4.344953875309802  -1.304507089863787 
H  5.926929413661903  4.336496873609062  -1.3872246481501214 
C  4.351803359111043  5.545935600635886  -1.0869604847159662 
H  4.804034473130695  6.353453134576673  -1.053764974616764 
C  3.004098825229539  5.467309431805073  -0.9305079202426951 
H  2.5602195890768256  6.268846902654681  -0.7741479300390057 
C  2.255998702185509  4.344223548255719  -0.9725863478948997 
H  1.3332396642827786  4.370422470796589  -0.8617903893650459 
C  1.0577123498920071  1.8376629852913102  -2.343996619148103 
H  1.4704144172880258  2.0252660758621626  -3.1909063569450735 
H  0.3842415613805108  2.495113661627788  -2.1638790042226725 
H  0.6556954040004174  0.96532412525282  -2.370590386890747 
N  1.4613152047043105  1.5351409943389558  1.4558397023294063e-16 
H  0.9675350100180249  2.3565010190205675  0.20769633889551395 
P  1.4613152047043103  -1.5351409943389562  -2.220446049250313e-16 
Br  -1.654629867976521  1.654629867976521  0.0 
C  -1.3788582233137676  -1.3788582233137676  0.0 
C  -2.618821778986925  -1.1522995256591737  0.5874691967409313 
H  -2.8106553971707884  -0.30966242518610043  0.9782000501948407 
C  -3.5854032518711887  -2.161278806785389  0.6049610958635797 
H  -4.421117162155692  -2.007227978208148  1.0287619599160838 
C  -3.3399450833386255  -3.3715361338635086  0.016423527177974573 
H  -3.9908757182151104  -4.061238805801311  0.045080339651694 
C  -2.164680252095028  -3.57422256025893  -0.6007549227026177 
H  -2.0132444416912625  -4.3986257169530365  -1.0474288760065327 
C  -1.1561711193052586  -2.601214672555715  -0.5998012209931929 
H  -0.3196784027493984  -2.7832859823079534  -1.0129111498427692 
