73

Pd  0.0  0.0  0.0 
N  2.01088  -0.01495  0.0 
N  2.56565  1.24261  0.00394 
O  0.4397  1.89952  0.0 
O  -0.05058  -1.88456  0.0 
O  1.14121  -6.4127  -0.64463 
H  1.78887  -7.11357  -0.8063 
C  1.7361  2.21213  0.0378 
C  2.1411  3.61441  0.1418 
C  3.47729  4.00677  -0.01196 
H  4.24735  3.27404  -0.2222 
C  3.81838  5.35724  0.09148 
H  4.84701  5.66151  -0.03959 
C  2.83229  6.31267  0.36345 
H  3.09585  7.35662  0.44562 
C  1.50312  5.92096  0.53251 
H  0.73637  6.6521  0.75193 
C  1.15725  4.57874  0.4178 
H  0.12054  4.29244  0.5585 
C  2.88429  -1.11656  -0.19068 
H  3.97722  -0.90692  -0.20764 
C  2.31612  -2.46593  -0.25416 
C  0.94609  -2.79117  -0.15969 
C  0.56735  -4.13293  -0.2948 
H  -0.48308  -4.39528  -0.26955 
C  1.52674  -5.13431  -0.49022 
C  2.88181  -4.80082  -0.53267 
H  3.64092  -5.5564  -0.67194 
C  3.27058  -3.47889  -0.411 
H  4.3268  -3.23485  -0.45983 
S  -1.90328  -0.09412  -4.06957 
C  -3.13622  0.00837  0.69047 
H  -3.22361  0.06335  1.75413 
N  -1.92405  0.0  -0.07595 
N  -0.07595  0.0  -1.92405 
N  -2.34225  -0.00238  -1.38386 
C  -4.23186  -0.04359  -0.16505 
H  -5.27739  -0.05722  0.11638 
C  -3.74377  -0.04072  -1.45416 
H  -4.33668  -0.05211  -2.35993 
C  -1.40729  0.4419  -2.38334 
C  1.08462  0.11517  -2.81638 
H  1.8834  -0.56248  -2.46915 
H  1.45684  1.15691  -2.82151 
C  0.77416  -0.34964  -4.25163 
H  1.687  -0.21821  -4.86714 
H  0.49973  -1.43134  -4.27627 
C  -0.36251  0.44928  -4.86108 
H  -0.43907  0.20094  -5.94232 
H  -0.19395  1.54737  -4.78307 
N  0.0  0.0  1.91 
N  0.12681  0.00902  4.18687 
N  0.93995  0.18721  6.37379 
N  -1.33826  -0.20368  5.97078 
C  1.33597  0.16636  2.46174 
H  2.31529  0.27549  2.07384 
C  1.4028  0.1669  3.74669 
H  2.32394  0.26836  4.31951 
C  -0.76384  -0.11416  3.08992 
H  -1.8143  -0.24794  3.20034 
C  -0.09251  0.00409  5.52387 
C  0.76806  0.15006  7.69839 
C  -0.52716  -0.06521  8.19654 
H  -0.6992  -0.09142  9.24902 
C  -1.58938  -0.24441  7.28171 
C  1.96732  0.33015  8.55992 
H  2.74179  -0.42994  8.30114 
H  1.70794  0.23116  9.62669 
H  2.40398  1.33453  8.37506 
C  -2.97533  -0.43609  7.68014 
H  -3.6007  -0.5505  6.76177 
H  -3.30863  0.46514  8.22587 
H  -3.04161  -1.35467  8.28341 
