112

Pd  0.0  0.0  0.0 
O  10.92639  -1.62949  -1.50564 
O  12.07221  -1.74514  3.7807 
O  16.46193  -0.97915  4.28437 
N  0.31191  2.0305  0.0 
N  1.85956  -0.01792  0.0 
N  0.22853  -2.01258  0.0 
N  10.33899  0.09618  -0.17756 
H  10.70444  0.87546  0.39278 
N  14.34749  -1.64868  3.77082 
C  -0.72142  3.04605  -0.02853 
H  -1.78996  2.75475  -0.04523 
C  -0.21293  4.47359  -0.03061 
H  -0.91751  5.29621  -0.04904 
C  1.10451  4.7389  -0.01119 
H  1.46492  5.76282  -0.01388 
C  2.09204  3.65052  0.0143 
H  3.14912  3.8931  0.0279 
C  1.67481  2.38079  0.02109 
C  2.55535  1.21864  0.04278 
C  4.01694  1.17087  -0.03291 
H  4.52397  2.12285  -0.07351 
C  4.65286  -0.02027  -0.08261 
C  3.86221  -1.29372  -0.09245 
H  4.35674  -2.25332  -0.10741 
C  2.52654  -1.24528  -0.06081 
C  1.61881  -2.39891  -0.05133 
C  1.97855  -3.83948  -0.11194 
H  3.01949  -4.14331  -0.16825 
C  0.9953  -4.74102  -0.0995 
H  1.25553  -5.7929  -0.14708 
C  -0.43401  -4.31742  -0.02412 
H  -1.19614  -5.08715  -0.00864 
C  -0.78535  -3.01084  0.01981 
H  -1.83076  -2.73246  0.07097 
C  6.12464  -0.04716  -0.13868 
C  6.85183  1.06096  0.3355 
H  6.38952  1.93668  0.76444 
C  8.21883  1.06673  0.30092 
H  8.73599  1.94092  0.68374 
C  8.92967  -0.0134  -0.21626 
C  8.21665  -1.13901  -0.69415 
H  8.70242  -2.01444  -1.08204 
C  6.82434  -1.15566  -0.64716 
H  6.30837  -2.03217  -1.0237 
C  11.2529  -0.70432  -0.77817 
C  12.69797  -0.43988  -0.50648 
H  12.79823  0.50056  0.07981 
H  13.2546  -0.30344  -1.45654 
C  13.25929  -1.57411  0.34469 
H  12.61432  -1.69045  1.24271 
H  13.23951  -2.52062  -0.2355 
C  14.67876  -1.22964  0.79282 
H  14.65611  -0.3006  1.40583 
H  15.2949  -1.03142  -0.11041 
C  15.35785  -2.35013  1.59156 
H  15.44869  -3.24846  0.94216 
H  16.38251  -2.00634  1.84084 
C  14.62638  -2.76828  2.88117 
H  13.67753  -3.27007  2.5983 
H  15.24532  -3.51935  3.41782 
C  13.11764  -1.23308  4.15043 
C  13.21772  -0.10116  5.06708 
H  12.40774  0.44066  5.53729 
C  14.57085  0.13739  5.22406 
H  15.0143  0.9044  5.84496 
C  15.25162  -0.85856  4.39228 
O  -0.09309  -0.37894  -5.47505 
N  -1.94779  0.0  -0.05221 
N  -1.34454  -0.06129  -2.33263 
C  -0.05221  0.0  -1.94779 
C  -2.9026  0.03562  1.04597 
H  -2.60696  0.13155  2.0864 
C  -4.34766  -0.10256  0.6703 
H  -5.09456  -0.1287  1.45693 
C  -4.71115  -0.19025  -0.61253 
H  -5.7611  -0.28598  -0.86888 
C  -3.69242  -0.16574  -1.69301 
H  -4.02007  -0.22763  -2.72477 
C  -2.38739  -0.0784  -1.37397 
N  -1.49547  -0.16217  -3.62357 
C  -0.26952  -0.18138  -4.14608 
C  0.70699  -0.05328  -3.12296 
H  1.7802  -0.07062  -3.2322 
C  -1.19569  -0.68282  -6.27643 
H  -1.70276  -1.60817  -5.9085 
H  -0.88764  -0.85466  -7.32448 
H  -1.9499  0.13884  -6.25134 
Si  0.0  0.0  2.36 
C  -0.42172  -1.41501  3.51775 
C  0.29053  1.45499  3.4915 
C  -1.67101  -1.50952  4.15664 
H  -2.45913  -0.80211  3.9689 
C  1.59157  1.69798  3.97242 
H  2.43326  1.10785  3.63432 
C  -0.77527  2.22204  3.98693 
H  -1.78819  2.03849  3.65438 
C  -1.91771  -2.52315  5.08772 
H  -2.88345  -2.58736  5.57192 
C  0.58297  -2.34298  3.85929 
H  1.57264  -2.28346  3.42475 
C  -0.91559  -3.4377  5.41349 
H  -1.10489  -4.20924  6.14883 
C  0.33582  -3.34417  4.80398 
H  1.11996  -4.04004  5.07478 
C  1.82092  2.684  4.93436 
H  2.82265  2.84709  5.3127 
C  -0.53855  3.21403  4.95055 
H  -1.36027  3.79621  5.34709 
C  0.75673  3.43879  5.42774 
H  0.93658  4.18867  6.18842 
H  1.41363  -0.35297  2.30797 
