40

Pd  0.0  0.0  0.0 
C  1.2815350221757318  3.137129892640634  -0.091097527056996 
H  0.7369727418496156  3.4111404170198707  0.6756608999429614 
H  0.8025670047923702  3.339073366948454  -0.9209832128645989 
H  2.131171175260527  3.6249526198302027  -0.07825057377527911 
C  2.6284079110675735  1.0114667045414183  -1.4255257086869086 
H  2.0645430357686414  0.9930840935509664  -2.239742965945261 
H  3.3061302904078937  1.7238550253600786  -1.5390552506681572 
C  2.8525964760654783  1.1338350853533183  1.3139341498804409 
H  3.532963512798137  1.851144616339316  1.2672699014210702 
H  2.4145512621241902  1.182130410635829  2.200992965348162 
C  4.223957972342664  -0.2644340781664456  -0.11751181936821782 
H  4.764711768816234  -1.0939278941720525  -0.11809560689314622 
H  4.843431802724737  0.5022746225334966  -0.20699696753693633 
C  2.6463036609794646  -1.3135927851312272  1.310029893310324 
H  2.130290492569391  -1.247809856691503  2.15185639939891 
H  3.1973078547534985  -2.135844989911634  1.3479695846268145 
C  2.424977974215997  -1.4144760091526611  -1.181175978449344 
H  2.9648191093043854  -2.2448840937997874  -1.1819052377829597 
H  1.8406909016308017  -1.4349590865545117  -1.9809647257757879 
C  1.066668781999776  -2.9183828954219435  0.2841337382224708 
H  1.8313354097810692  -3.531400384226206  0.31266822223245594 
H  0.4591030707431718  -3.1889260575500527  -0.43606839585586765 
H  0.592255635833224  -2.9476429805244933  1.1414829285551826 
N  3.4978054799926723  -0.15693652875143882  1.162115503223682 
N  3.3049259332537284  -0.2840140819796775  -1.2741177914169266 
P  1.5985336022430057  1.3916861436760801  -1.3642592183413524e-15 
N  1.598533602243006  -1.3916861436760801  -5.551115123125783e-17 
Br  -1.654629867976521  1.654629867976521  0.0 
C  -1.35204078  -1.31992066  -0.4819701 
C  -1.63807002  -1.59921746  -1.81393823 
H  -1.15796809  -1.15933936  -2.50351594 
C  -2.63068217  -2.5263265  -2.14228996 
H  -2.83682226  -2.69439953  -3.05388981 
C  -3.31015444  -3.19615732  -1.16198741 
H  -3.99601236  -3.81199015  -1.38686634 
C  -2.99747104  -2.9701089  0.1242356 
H  -3.43865917  -3.46858118  0.80170842 
C  -2.03898543  -2.01594063  0.49125628 
H  -1.86191301  -1.84921651  1.41015686 
