43

Fe  0.0  0.0  0.0 
N  1.2706348796959728  1.3720010942051022  -6.298886455074171e-16 
C  0.8270554904809443  2.741341376027898  0.060521550220514586 
C  1.1433217883150333  3.52659260472622  1.1572677864493504 
H  1.6296614972518828  3.162558080913125  1.8874516352048691 
C  0.7353959424354451  4.86338439209911  1.1706106300674917 
H  0.9610755691432822  5.419932446780071  1.906758345488703 
C  0.0019859342145571723  5.379908659458084  0.11358583325771501 
H  -0.2636390053429003  6.292122767949823  0.12230086359146156 
C  -0.3418880268852389  4.573948434885045  -0.9455547595267032 
H  -0.8584638541061378  4.929567651998483  -1.660229263864638 
C  0.05844694696485431  3.2450031244905393  -0.9834852313521307 
H  -0.1902228827086656  2.686881973396525  -1.7119371079449797 
C  2.5298604801016698  1.2106801988101654  -0.23276100616712142 
C  3.489774013728605  2.350808527866845  -0.3994928304907907 
C  3.352431285513068  3.2428635343601826  -1.4574566013244208 
H  2.6778735168814194  3.10795595609237  -2.113307477747272 
C  4.213160338586347  4.333580157197141  -1.5467401712729487 
H  4.1174060072944325  4.95310719590731  -2.2606864832221483 
C  5.202576049498441  4.5198455006282705  -0.6025674154507876 
H  5.783468628371047  5.267910213794286  -0.6693806381437262 
C  5.352170715307773  3.6263788042986924  0.4353704432437092 
H  6.041694572687664  3.7539754773184226  1.076243440910414 
C  4.490327638352781  2.5324714077673924  0.5468944698876921 
H  4.588341680157827  1.917671234820953  1.2642305382364782 
N  3.1258810381385898  -0.024764745191173665  -0.34017625061076096 
H  3.8402905590625513  -0.010054756922765584  -0.4655335904769992 
C  2.5237147906062853  -1.2537730798943862  -0.26578187204018655 
C  3.3894989134367144  -2.434041734080987  -0.5161007418828288 
C  3.2312626373898086  -3.5643123596291746  0.27735028620001895 
H  2.60986590541359  -3.555061674587007  0.9966851569768703 
C  3.976477040526448  -4.704330688773582  0.020129675492995047 
H  3.871602559777393  -5.475157231454094  0.5654932188169185 
C  4.876074294469577  -4.715489109174746  -1.0356733366035724 
H  5.3801397374223665  -5.500584011467132  -1.2156372319140927 
C  5.046187549813574  -3.5986418038249086  -1.8240556530523153 
H  5.665565222053173  -3.613579226314264  -2.544711286861183 
C  4.308101173531169  -2.4499621040371453  -1.5660528072505095 
H  4.4287787194806985  -1.6757512746970875  -2.103052157004486 
N  1.2706348796959728  -1.372001094205103  -2.220446049250313e-16 
H  1.0528723045060762  -2.1135901565589394  -0.05091152564816109 
Cl  -1.5202795795510768  1.5202795795510768  0.0 
Cl  -1.5202795795510768  -1.5202795795510768  0.0 
