35

Fe  0.0  0.0  0.0 
S  1.6273735488510312  1.465522204710663  -1.9828502194830842e-16 
S  1.6273735488510312  -1.465522204710663  2.220446049250313e-16 
C  3.9472926459583464  0.0008072839129948939  -0.10282472304641024 
C  2.460521729721891  0.00406528299663389  -0.05519660030972095 
C  4.6753964985234555  1.1236370914114606  0.29798014627635033 
H  4.204576352566946  1.8970478363027525  0.5857403586897554 
C  4.655839668781331  -1.1235828274775919  -0.5350284410495715 
H  4.187996767023547  -1.8993470883981276  -0.8224512841801589 
C  6.06444940652136  1.1460587578279635  0.2891050317543294 
C  6.736380377629731  0.011711339101401652  -0.13390810479552953 
H  7.686528806287125  0.002272260010319993  -0.14228230958246732 
C  6.036350493903946  -1.1082853110510669  -0.5443610564698249 
H  6.511800909573141  -1.8770726868946408  -0.8367326744212794 
C  6.814770998325297  2.393804393562647  0.698008537948489 
H  7.7513457923527564  2.1670561471479117  0.8794267783221368 
H  6.407811997092587  2.7705692206155494  1.5054788138172162 
H  6.773423786299119  3.0528622685613347  -0.026855266817552834 
S  -1.6273735488510317  1.4655222047106629  -2.9742753292246315e-16 
S  -1.6273735488510317  -1.4655222047106624  3.3306690738754696e-16 
C  -3.947292645958346  0.0008072839129948939  0.10282472304641266 
C  -2.4605217297218918  0.004065282996634334  0.05519660030972115 
C  -4.675396498523459  1.1236370914114613  -0.2979801462763515 
H  -4.2045763525669475  1.8970478363027523  -0.585740358689758 
C  -4.655839668781342  -1.1235828274775914  0.5350284410495734 
H  -4.187996767023554  -1.8993470883981272  0.8224512841801607 
C  -6.064449406521329  1.1460587578279642  -0.2891050317543273 
C  -6.736380377629698  0.011711339101402096  0.13390810479552767 
H  -7.686528806287092  0.002272260010319993  0.14228230958246457 
C  -6.036350493903927  -1.1082853110510669  0.544361056469827 
H  -6.511800909573116  -1.8770726868946408  0.8367326744212848 
C  -6.814770998325267  2.3938043935626476  -0.6980085379484802 
H  -7.751345792352734  2.1670561471479113  -0.8794267783221358 
H  -6.407811997092557  2.77056922061555  -1.5054788138172044 
H  -6.773423786299091  3.052862268561335  0.02685526681755472 
