65

Pd  0.0  0.0  0.0 
N  2.68592  -1.19576  -0.12144 
C  -0.5222  -3.04339  0.11625 
H  -1.60026  -2.81701  0.19567 
C  0.04155  -4.44575  0.16824 
H  -0.63033  -5.28981  0.26895 
N  0.45819  -1.97793  0.0 
N  2.05302  0.02109  0.0 
C  1.83545  -2.28328  -0.05777 
C  2.90916  1.16032  -0.14177 
H  4.00124  0.99265  0.01298 
C  2.30247  -3.53355  -0.02186 
H  3.37408  -3.71588  -0.0558 
C  1.3655  -4.6602  0.09682 
H  1.76167  -5.67039  0.13878 
O  -0.11121  1.95684  0.0 
C  0.91404  2.84944  -0.01824 
C  2.30454  2.52077  -0.05578 
C  0.55211  4.20436  -0.00492 
H  -0.49446  4.47979  0.01208 
C  3.25628  3.55086  -0.05517 
H  4.31693  3.3195  -0.07692 
C  1.51907  5.21154  -0.02302 
H  1.22131  6.25008  -0.02189 
C  2.8706  4.88221  -0.04233 
H  3.62745  5.65427  -0.05634 
H  -2.37195  0.71632  0.55688 
H  -2.37631  -0.76639  0.48439 
C  -2.35448  0.11036  -1.42619 
C  -3.77963  0.16434  -1.8373 
H  -4.55052  0.1573  -1.07459 
C  -4.12884  0.20955  -3.14142 
H  -5.17801  0.23801  -3.41233 
C  -3.09932  0.21015  -4.25042 
H  -3.38339  0.19766  -5.32311 
C  -1.66992  0.11993  -3.81414 
C  -1.38413  0.09989  -2.37361 
C  1.02432  -0.13078  -2.87262 
H  2.04724  -0.22839  -2.53298 
C  0.76133  -0.1088  -4.19188 
H  1.5757  -0.19488  -4.90497 
C  -0.64172  0.02529  -4.68321 
H  -0.82465  0.02594  -5.7531 
N  -1.94895  0.0  -0.05105 
N  -0.05105  0.0  -1.94895 
O  -0.73218  -0.44021  5.34598 
N  1.15048  0.95096  5.11915 
C  0.0  0.0  1.95 
C  0.15705  -0.02679  3.14046 
C  0.45382  -0.23496  4.57144 
C  2.41119  1.3142  4.43109 
H  2.36215  1.15676  3.3348 
H  3.29122  0.75349  4.81771 
H  2.58005  2.39992  4.58321 
C  1.35606  0.89882  6.57992 
H  0.50987  0.41786  7.11822 
H  1.40827  1.93702  6.9631 
H  2.28247  0.35345  6.87101 
C  -1.76379  -1.14101  4.67972 
H  -1.42225  -2.12617  4.28887 
H  -2.19421  -0.51594  3.86749 
C  -2.87745  -1.35436  5.68568 
H  -3.74902  -1.83295  5.19422 
H  -3.18469  -0.36733  6.09483 
H  -2.51224  -1.99481  6.51498 
