30

Ru  0.0  0.0  0.0 
C  2.44428  -0.01507  0.32688 
C  3.83078  -0.14888  -0.20993 
H  4.47877  0.71914  -0.28398 
C  4.32938  -1.3931  -0.3603 
C  3.43335  -2.60557  -0.23529 
H  3.86199  -3.59886  -0.32581 
C  2.0879  -2.46948  -0.08698 
H  1.42713  -3.3229  -0.0822 
C  2.72737  3.55832  -1.26628 
H  3.58341  2.95298  -1.63375 
H  3.06087  4.60391  -1.10923 
H  1.92441  3.54074  -2.03302 
C  0.64844  3.86021  0.9225 
H  0.24715  3.40809  1.85124 
H  -0.12248  3.8849  0.12874 
H  1.00287  4.89175  1.11677 
C  3.44272  2.89542  1.61422 
H  3.08561  2.43156  2.55401 
H  3.72491  3.95191  1.79496 
H  4.33774  2.35224  1.25287 
C  5.80471  -1.54013  -0.63165 
H  6.10424  -2.60586  -0.68248 
H  6.3737  -1.06712  0.20093 
H  6.08506  -1.03142  -1.57746 
N  1.58833  1.1484  0.0 
N  1.58833  -1.1484  0.0 
Si  2.07639  2.83981  0.34099 
Cl  -1.58392  1.58392  0.0 
Cl  -1.58392  -1.58392  0.0 
