57

Pd  0.0  0.0  0.0 
N  1.9178342317595212  0.010176513042852942  -4.817646662580166e-16 
C  0.23800950382672825  2.050055086248992  4.875048531566406e-15 
C  -0.678899846217492  3.0940150545013436  -0.02500836836011024 
C  -0.2212879210077856  4.407080255021748  -0.009968917300481847 
C  1.0965569425382005  4.681727641744972  -0.002212720322278926 
C  2.0469604395136085  3.6777600227077034  -0.01578043426209284 
C  1.6081214931776084  2.3451224582263226  -0.013230745684250799 
C  2.541581007243831  1.191996097351643  -0.013864350584250297 
C  3.929419171019364  1.2027904682363646  0.0034403518216746627 
C  4.612887059030948  -0.0114756373568885  0.009324301547838051 
C  3.9109083546404557  -1.2126903901870587  0.027484317114999154 
C  2.5435999302001377  -1.20482565837162  -0.006775257430018665 
C  1.6083000395518727  -2.3423759394634245  -0.002364753910208988 
C  2.054393486619835  -3.6560451999011434  -0.023946011149785975 
C  1.1311012175852182  -4.696163333648076  -0.023005909184649575 
C  -0.21344803305785032  -4.421522569141329  -0.016133277497167742 
C  -0.6750520707942111  -3.1004926469232474  0.008680971433164994 
C  0.2441562644137506  -2.060231599291845  -4.391549141832413e-15 
H  -1.6110745783217013  2.9114055694880725  -0.0518887480008957 
H  -0.843275904470284  5.122150629338209  -0.004207129108273196 
H  1.3815876844629036  5.58780776964255  0.009320188545939967 
H  2.9740381837102827  3.8861734572140154  -0.02292161991203135 
H  4.404994504800979  2.026440188249116  0.016043947396900283 
H  5.562574811162853  -0.017814627492752866  0.00402801466882665 
H  4.380407000664244  -2.03622967666424  0.060783341282149274 
H  2.985742154378551  -3.8447499015572966  -0.041558354461421254 
H  1.4264499094373018  -5.598802710447  -0.020155352517283686 
H  -0.8390085890705172  -5.136380374877056  -0.02989984351145659 
H  -1.6064459214112017  -2.918411339159296  0.031112921767997664 
N  -1.9714137545351107  -5.551115123125783e-16  -0.028586245464889082 
N  -0.028586245464889082  4.996003610813204e-16  -1.9714137545351107 
C  -2.404567195308885  0.08823573376793703  -1.418543813893609 
C  -3.765193091709136  0.1777529158285063  -1.7478873187042616 
C  -4.0844575359209925  0.1907920853468213  -3.117032794802549 
C  -3.132437059070701  0.1441749064200873  -4.084871020068881 
C  -1.82242923722357  0.026811535555512873  -3.7372004779192087 
C  -1.4621172673940366  0.03991970340623519  -2.419314219422975 
H  -2.3799956699809552  0.7014439001342734  0.471542021417777 
H  -2.23645248353936  -0.8511430216836327  0.3292905053406219 
H  0.35064936216181597  -0.8390857194458263  -2.2270591717248056 
H  0.45419149099944867  0.7183851492176703  -2.383829133198292 
H  -4.4276682240376894  0.23838100274669846  -1.0682016015357108 
H  -4.998114358442802  0.2714904617310221  -3.385825117439034 
H  -3.3895988357159696  0.13066348534423877  -5.008009618619039 
H  -1.1562889551821312  -0.03369574210165967  -4.413466826329551 
N  0.0  0.0  1.91 
N  0.0026361035737502148  0.03035974201449032  4.359934663827336 
C  0.02185517169713891  0.018255650725467365  3.0611184572782584 
C  1.1829045159564073  0.43852670364877333  5.137293233704813 
H  1.8854604853766688  0.7469564605406209  4.527328870077239 
H  1.5121327206496136  -0.32564827321371626  5.656214956098184 
H  0.9367105799905886  1.1651373110915202  5.746811929927776 
C  -1.1867679858291607  -0.4396626963924849  5.0780829141946215 
H  -1.857124800719805  -0.7484493559489637  4.433396339485933 
H  -1.5587166419941778  0.29455675528089154  5.61016960258429 
H  -0.9390901487010207  -1.1800322977465967  5.67123705300365 
