60

Pd  0.0  0.0  0.0 
P  1.5197065555560383  -1.4773598021470606  1.3191430160662538e-15 
N  1.5197065555560385  1.4773598021470606  6.887578525182374e-17 
N  2.018498152210419  4.313326595010254  0.46154777963309324 
C  1.4978394778987514  2.1078002091802053  1.3543123657763185 
H  1.7849139906731766  1.4369877005687453  2.0239315205245463 
H  0.5678648487367878  2.3709827591825348  1.570260101326736 
C  2.3931591411536637  3.3287535256157414  1.4690516775844427 
H  2.3034114232889262  3.72412700142787  2.3722865704901093 
H  3.339196502696632  3.0626155378157587  1.3415999533332876 
C  2.1953519331251856  3.74410967928136  -0.8659409785205413 
H  3.136736995179231  3.460625774824678  -0.987126500987186 
H  1.984211304066786  4.424221557606302  -1.5539790644737506 
C  1.2731272323026535  2.5438067859557942  -1.0245106334583234 
H  0.333487595724717  2.8492187575988988  -0.951540496081662 
H  1.396652350997119  2.1587559512347783  -1.9285580988782467 
C  2.8519370912532587  0.8225930089838941  -0.2733513605723643 
H  3.5805914005998414  1.4307310662765662  0.008912152377790068 
H  2.9475270880609825  0.6617823251851811  -1.2451530412081404 
C  2.980120957064452  -0.4946832477355118  0.4724378321818717 
H  2.995991764461838  -0.34279859196384793  1.4510648442828549 
H  3.812423060122561  -0.9623267723501261  0.2095757331050494 
C  2.7550087019982583  5.560492391942229  0.6192161182881939 
H  2.608412176248282  5.915229358684087  1.5217113000287088 
H  2.4404894540015905  6.211745487905528  -0.043174904928329996 
H  3.7114595552780134  5.394765830515434  0.48485030381854877 
C  1.3026374663594682  -2.768669334345975  1.2470955025849597 
C  1.133636057845619  -4.110211853046991  0.9127127362262943 
H  1.2052628148030355  -4.389000902540163  0.00658607644275423 
C  0.8562001405006674  -5.038262665724727  1.9072582660313244 
H  0.7494055935853444  -5.955297296036904  1.6821687248319215 
C  0.7359065508614413  -4.632971230199127  3.2261353052511796 
H  0.5396673982954926  -5.272378061647467  3.9005788083686745 
C  0.9003157821161833  -3.302904839368493  3.5679933908086228 
H  0.8111834777371677  -3.0281209482608404  4.473559233530107 
C  1.1933822055824574  -2.3662687518094647  2.578002016644763 
H  1.319016659255716  -1.4538221642950875  2.8103184366059644 
C  1.8901155056068824  -2.2483412268106098  -1.5904093914920323 
C  2.9921554348338564  -3.0886124614792996  -1.748344778843214 
H  3.5761154366827625  -3.2479386693928465  -1.015543976638052 
C  3.2379232045644337  -3.6979949109622345  -2.975065873315738 
H  3.9804686687948836  -4.2823970239378655  -3.078204342862371 
C  2.3981795317957824  -3.44796941652061  -4.045573638899111 
H  2.5615598952384113  -3.8699834574427388  -4.881050404647829 
C  1.325916492457267  -2.5882930714933354  -3.908574309451468 
H  0.7678995552409598  -2.4023709964505366  -4.65572597396915 
C  1.0618406403773821  -2.0003142638003317  -2.6857440039502305 
H  0.3129443655778721  -1.424107967431058  -2.5886681901971533 
Br  -1.654629867976521  1.654629867976521  0.0 
C  -1.35204078  -1.31992066  -0.4819701 
C  -1.63807002  -1.59921746  -1.81393823 
H  -1.15796809  -1.15933936  -2.50351594 
C  -2.63068217  -2.5263265  -2.14228996 
H  -2.83682226  -2.69439953  -3.05388981 
C  -3.31015444  -3.19615732  -1.16198741 
H  -3.99601236  -3.81199015  -1.38686634 
C  -2.99747104  -2.9701089  0.1242356 
H  -3.43865917  -3.46858118  0.80170842 
C  -2.03898543  -2.01594063  0.49125628 
H  -1.86191301  -1.84921651  1.41015686 
