78

Pd  0.0  0.0  0.0 
O  0.13738  -1.99798  0.0 
N  0.31761  2.02639  0.0 
N  1.94501  -0.02841  0.0 
C  -0.68254  3.06683  -0.04064 
C  -0.1288  4.48081  0.01994 
C  1.19283  4.70909  0.10011 
C  2.16192  3.5965  0.11785 
C  1.71583  2.33577  0.06633 
C  2.62595  1.19397  0.08247 
C  2.43099  -1.3571  0.07536 
C  3.78486  -1.70562  0.05631 
C  4.15158  -3.06473  0.01522 
C  3.15805  -4.06181  0.00604 
C  1.8067  -3.7161  0.02907 
C  1.43656  -2.37862  0.04597 
H  -1.75914  2.80846  -0.10049 
H  3.22431  3.79981  0.16914 
H  5.19533  -3.337  -0.02049 
H  3.45343  -5.10535  -0.05149 
H  1.57802  5.72513  0.13484 
H  -0.80744  5.32127  0.00018 
H  4.55608  -0.94762  0.042 
H  3.70208  1.26948  0.131 
H  1.04844  -4.49824  -0.0097 
S  4.12322  0.01505  -6.28293 
C  -2.86782  0.27617  1.06663 
H  -2.58047  -0.28181  1.9847 
C  -4.32085  0.00343  0.67332 
H  -5.08727  -0.07319  1.43916 
C  -4.69947  -0.09212  -0.61516 
H  -5.74444  -0.22545  -0.88304 
C  -3.70859  -0.01808  -1.6954 
H  -4.03026  -0.00424  -2.73414 
C  -2.41143  -0.00955  -1.38922 
C  -1.37627  0.05118  -2.41863 
H  -1.62012  0.10674  -3.47356 
C  1.01917  0.08185  -2.91129 
C  0.95034  1.02772  -3.95417 
H  0.13447  1.73884  -4.00014 
C  1.91819  1.0436  -4.96268 
H  1.83532  1.75591  -5.77198 
C  2.96102  0.11413  -4.93916 
C  3.04301  -0.81443  -3.90841 
H  3.82901  -1.55834  -3.88917 
C  2.07352  -0.83582  -2.92072 
H  2.13356  -1.63236  -2.23316 
N  -1.95881  0.0  -0.04119 
N  -0.04119  0.0  -1.95881 
O  3.41035  -1.03444  -7.43949 
O  4.37166  1.58094  -6.93545 
O  5.60199  -0.64022  -5.70599 
N  0.0  0.0  1.91 
C  1.20489  -0.11653  2.73298 
C  0.92903  -0.1193  4.28663 
H  1.95779  -0.31389  4.6329 
C  0.16811  -1.30923  4.9085 
C  0.86281  -2.51608  5.14015 
H  1.89896  -2.6125  4.84799 
C  0.24455  -3.60647  5.7637 
H  0.79764  -4.51672  5.93966 
C  -1.08223  -3.50722  6.18304 
H  -1.55599  -4.3527  6.67439 
C  -1.7915  -2.32252  5.97933 
H  -2.8191  -2.25824  6.32488 
C  -1.17646  -1.22703  5.35209 
H  -1.75324  -0.32035  5.23291 
C  0.61128  1.21043  4.98495 
C  1.37054  1.58741  6.1194 
H  2.1605  0.94814  6.49304 
C  1.11687  2.78418  6.79473 
H  1.7109  3.05455  7.66033 
C  0.09994  3.62923  6.35669 
H  -0.08872  4.55956  6.88136 
C  -0.67448  3.27052  5.24928 
H  -1.46818  3.93152  4.92438 
C  -0.42673  2.06582  4.56676 
H  -1.0472  1.80896  3.71961 
