25

Fe  0.0  0.0  0.0 
N  1.291896014584765  1.3520002542529352  3.570596920464565e-17 
N  1.2918960145847649  -1.3520002542529344  1.1102230246251565e-16 
C  0.8178426236070131  1.265637548600547  -1.366626586004724 
C  0.6152263897509227  2.4296869228882914  -2.0732386266594953 
C  0.160872918913058  2.402946924218707  -3.409039639538582 
C  -0.10142584153155498  1.2120859943221747  -4.019911431255298 
C  0.12660271297704773  -0.01586604546302528  -3.3346203498044367 
C  0.5975887719306424  -0.0030267468420417387  -1.980997228443722 
C  0.8354217511136408  -1.2723179874330017  -1.36357840740567 
C  0.6503951296784747  -2.4387018768142683  -2.0530434623229827 
C  0.17347014217529022  -2.4362834786004264  -3.393728584805225 
C  -0.09609618149271792  -1.2481470748187453  -4.0027006721399765 
H  0.5546709694602772  1.2588786482443852  0.542227931165118 
H  1.6012060058265138  2.209540536773546  0.11960507168385759 
H  1.593654416220319  -2.210770606808496  0.13044515557871877 
H  0.5506980917737009  -1.2480861132917482  0.535553303163071 
H  0.7854205501599294  3.2657525090035815  -1.6542120243102234 
H  0.03798484703212823  3.216100561980027  -3.88428354868936 
H  -0.4384491592433746  1.2002396023192012  -4.907730239523649 
H  0.8447008377521241  -3.2665902418342045  -1.630139777218886 
H  0.04374512289461663  -3.253151749538922  -3.8590516417308143 
H  -0.43809194563680554  -1.2451010361903905  -4.88906679793462 
Cl  -1.5202795795510768  1.5202795795510768  0.0 
Cl  -1.5202795795510768  -1.5202795795510768  0.0 
