70

Pd  0.0  0.0  0.0 
N  1.9178342317595212  -0.010176513042852942  4.805184028455755e-16 
C  0.23800950382672825  -2.050055086248992  -5.126107871511464e-15 
C  -0.678899846217492  -3.0940150545013436  0.02500836836010986 
C  -0.2212879210077856  -4.407080255021748  0.009968917300481307 
C  1.0965569425382005  -4.681727641744972  0.0022127203222783525 
C  2.0469604395136085  -3.6777600227077034  0.01578043426209239 
C  1.6081214931776084  -2.3451224582263226  0.01323074568425051 
C  2.541581007243831  -1.191996097351643  0.013864350584250151 
C  3.929419171019364  -1.2027904682363646  -0.00344035182167481 
C  4.612887059030948  0.011475637356888502  -0.00932430154783805 
C  3.9109083546404557  1.2126903901870587  -0.027484317114999005 
C  2.5435999302001377  1.20482565837162  0.006775257430018812 
C  1.6083000395518727  2.3423759394634245  0.0023647539102092745 
C  2.054393486619835  3.6560451999011434  0.023946011149786423 
C  1.1311012175852182  4.696163333648076  0.02300590918465015 
C  -0.21344803305785032  4.421522569141329  0.016133277497168284 
C  -0.6750520707942111  3.1004926469232474  -0.008680971433164614 
C  0.2441562644137506  2.060231599291845  4.643854745189912e-15 
H  -1.6110745783217013  -2.9114055694880725  0.051888748000895345 
H  -0.843275904470284  -5.122150629338209  0.004207129108272569 
H  1.3815876844629036  -5.58780776964255  -0.00932018854594065 
H  2.9740381837102827  -3.8861734572140154  0.022921619912030875 
H  4.404994504800979  -2.026440188249116  -0.016043947396900533 
H  5.562574811162853  0.017814627492752866  -0.004028014668826648 
H  4.380407000664244  2.03622967666424  -0.060783341282149024 
H  2.985742154378551  3.8447499015572966  0.041558354461421726 
H  1.4264499094373018  5.598802710447  0.020155352517284373 
H  -0.8390085890705172  5.136380374877056  0.02989984351145722 
H  -1.6064459214112017  2.918411339159296  -0.031112921767997306 
N  0.542178126730323  4.878503621896128e-16  -1.9102267146585636 
N  -1.9021781267303062  -5.596839670794113e-16  -0.5697732853414454 
N  -2.454916689710838  1.8089135114993646  -4.382713452575854 
C  1.6789246931973312  0.6372552459930041  -2.1448032801545356 
H  2.407019404335067  0.6175880218406232  -1.566858203259328 
C  1.6705536498132731  1.328155515423282  -3.321428247310101 
H  2.371412911239892  1.8037765980234062  -3.704068733221913 
C  0.4269564779034237  1.166294382119205  -3.8054713626865855 
H  0.09336321160164895  1.5447198132298998  -4.585746785705173 
N  -0.2615830936630301  0.35626820571230794  -2.959005922209116 
N  -2.348916890889604  0.4037983556433745  -1.7974074916819 
C  -3.4419182728706716  1.1907140586243536  -1.662491534918188 
H  -3.9313986779281547  1.5824508748978772  -2.3496554817610784 
C  -3.690787454239224  1.3004311105397035  -0.31310363328130164 
H  -4.38263712521486  1.7719571118301654  0.09147377943222756 
C  -2.7045923209653706  0.5646452782604775  0.31548264410961635 
H  -2.6176548896301046  0.47873445253464414  1.238585391942134 
N  -2.2870140815878393  0.47029595211140407  -4.191274418197367 
C  -2.5378221213737566  -0.24753162865209094  -5.2988535537330685 
H  -2.469293867864902  -1.1689678917808433  -5.395268238622741 
C  -2.9123887783058526  0.6528705184365599  -6.252781875481029 
H  -3.1524992964736116  0.47444255141949826  -7.1323560336117575 
C  -2.859369385792969  1.8852909155467035  -5.6370223454658674 
H  -3.0829299234946017  2.6829297922027053  -6.0599287635178 
C  -1.6649543907722724  -0.05029785963873866  -2.999890234052753 
H  -1.704429716021058  -1.029318614003215  -3.02963601056181 
N  0.0  0.0  1.91 
C  -0.9558892668779518  -0.6351664359428396  2.606247339757361 
H  -1.6412375248898  -1.0869209604112657  2.1278848152401997 
C  -0.9887127592035931  -0.6633050987635244  3.9853752975648344 
H  -1.688065522865061  -1.123252837281248  4.434585047894788 
C  0.006209992530136543  -0.015755966872378013  4.7208871260690435 
C  1.0264847536912791  0.5869233491436447  3.992129708416207 
H  1.7531863517761765  0.9976505466540657  4.44493015736264 
C  0.9828347964500802  0.5887627400870801  2.61773987366269 
H  1.680647409261261  1.0275042618222185  2.1441895336700254 
C  -0.03671636054448735  0.0674436436398349  6.214576251363301 
H  0.7871815154874275  -0.3109699251387532  6.586723897915516 
H  -0.807602799485434  -0.438090521387809  6.547799834332378 
H  -0.11832058533003509  1.0051772044509717  6.487579565309518 
