17

Co  0.0  0.0  0.0 
O  0.9481355375156025  -1.4589856073656102  3.382951000256884e-15 
C  3.0142128557583843  -2.4624896259169793  0.43572610639492076 
F  2.976158609006362  -2.937016078751622  1.6492434650941488 
F  2.614023486556815  -3.4701363583988254  -0.4144982000658667 
F  4.345349030455855  -2.217436670497108  0.05622239962541114 
C  2.1599114957816417  -1.2251304320455014  0.212077047189137 
C  2.7947344485387577  0.010080598071530649  0.30762452088659303 
H  3.713172525401316  0.014904394800209497  0.45681393054472696 
C  2.1579673393167678  1.2239320823214381  0.196063897020578 
C  3.04363437199746  2.474753437780284  0.2317170027856533 
F  3.943044518442665  2.3113534605656643  1.2162395195000733 
F  3.6970685547368114  2.602586357487258  -0.8799297592152043 
F  2.39471844149707  3.4585968340094118  0.5677605518074401 
O  0.9481355375156024  1.4589856073656107  3.7643730690634307e-16 
Br  -1.5909902576697317  1.5909902576697317  0.0 
I  -1.7253405460951763  -1.7253405460951763  0.0 
