99

Pd  0.0  0.0  0.0 
S  2.19133  -3.93538  0.42815 
O  0.02924  1.84257  0.0 
N  2.02999  -0.02531  0.0 
N  2.51282  -1.2905  0.26315 
N  0.34077  -1.81727  0.0 
H  -0.4482  -2.47532  -0.01229 
C  1.03184  2.75484  -0.00148 
C  0.63456  4.09363  -0.125 
H  -0.41831  4.3438  -0.16232 
C  1.57547  5.12178  -0.18385 
H  1.2508  6.15277  -0.26057 
C  2.92014  4.83049  -0.14707 
H  3.6632  5.61611  -0.21232 
C  3.34585  3.50437  0.0022 
H  4.40691  3.36856  0.06296 
C  2.40995  2.44529  0.11195 
C  2.88025  1.05203  0.47717 
C  4.40273  0.68676  0.3333 
H  4.66743  -0.05237  1.113 
H  5.12779  1.50393  0.43969 
H  4.64659  0.19921  -0.62786 
C  1.66159  -2.22017  0.20771 
C  0.68966  -4.795  -0.15458 
H  -0.08827  -4.73916  0.63597 
H  0.31692  -4.36649  -1.11297 
C  1.02521  -6.25668  -0.40723 
H  0.11575  -6.80788  -0.72689 
H  1.41535  -6.71766  0.52496 
H  1.7942  -6.3386  -1.20474 
C  0.48111  0.0  -1.87674 
O  1.54475  -0.41837  -2.76902 
C  -1.84111  0.0  -0.60327 
O  -3.17632  0.175  -0.20128 
S  -3.21959  0.11973  -3.09334 
C  -1.88329  0.07065  -2.06194 
C  -0.72646  0.0769  -2.74508 
C  -0.90755  0.1081  -4.14867 
C  -2.27183  0.12768  -4.48813 
C  -2.71818  0.13484  -5.79074 
H  -3.77294  0.14649  -6.01986 
C  -1.76618  0.12722  -6.82832 
H  -2.09178  0.12501  -7.8546 
C  -0.39893  0.11397  -6.51624 
H  0.32907  0.1078  -7.32505 
C  0.04543  0.11187  -5.19593 
H  1.09861  0.09716  -5.00326 
C  2.87799  -0.16828  -2.41694 
H  3.17128  -1.05831  -1.85052 
H  3.02531  0.8459  -2.00213 
C  3.88918  -0.26428  -3.52887 
H  3.75312  -1.21409  -4.07911 
H  4.89713  -0.28331  -3.04021 
H  3.83614  0.62226  -4.18575 
C  -3.3526  -0.01433  1.12754 
H  -2.94048  0.90445  1.59776 
H  -2.91637  -0.99959  1.42769 
C  -4.84324  -0.06332  1.42994 
H  -5.30242  -0.95581  0.95491 
H  -5.33442  0.85447  1.04434 
H  -5.01277  -0.11989  2.5235 
S  0.0  0.0  2.23 
P  0.16041  -0.09958  4.39319 
C  1.60111  1.03105  4.86258 
C  1.58553  2.31155  4.00299 
H  0.64197  2.87788  4.09853 
H  1.72833  2.07036  2.93262 
H  2.40973  2.98966  4.30929 
C  1.43598  1.44557  6.342 
H  1.36084  0.58192  7.02063 
H  0.51466  2.03974  6.48719 
H  2.27931  2.08028  6.68185 
C  2.93931  0.31291  4.65861 
H  3.77227  0.98977  4.91409 
H  3.03242  -0.0187  3.60378 
H  3.0108  -0.5665  5.3262 
C  -1.63143  0.36688  4.93689 
C  -1.86191  1.86971  4.62513 
H  -1.66964  2.09341  3.55231 
H  -1.21264  2.51886  5.23641 
H  -2.90655  2.17559  4.8479 
C  -1.88082  0.10524  6.41882 
H  -1.10697  0.56241  7.05552 
H  -1.92585  -0.98406  6.59593 
H  -2.87525  0.50275  6.71425 
C  -2.67498  -0.41761  4.19555 
H  -3.70645  -0.08067  4.43106 
H  -2.63528  -1.50323  4.28515 
H  -2.41556  -0.18932  3.21592 
C  0.6203  -1.87784  4.87874 
H  1.59892  -2.04502  4.3856 
C  0.77058  -2.17707  6.35744 
H  -0.1816  -2.08775  6.89679 
H  1.5262  -1.52367  6.81307 
H  1.12318  -3.22227  6.47373 
C  -0.30715  -2.90961  4.20629 
H  0.14285  -3.92045  4.27352 
H  -0.4437  -2.6871  3.12652 
H  -1.28257  -2.97933  4.71022 
