56

Ni  0.0  0.0  0.0 
P  1.2090867845196216  -1.6180881148750825  -3.166426231484756e-15 
N  1.2090867845196231  1.6180881148750825  -1.1973593652246553e-15 
N  2.569130719697543  1.4956651527514837  -0.16136100126939995 
C  1.0048151466080635  2.9338796749437153  0.22112918938277362 
C  2.2122679490674813  3.640332379522322  0.15984888237884073 
H  2.332997671625685  4.576400487356444  0.26560942127149956 
C  3.189754873473946  2.6999662919081953  -0.08586659104462853 
C  -0.3217566583675713  3.531761317548007  0.5373046591468194 
H  -0.9649724460281086  3.285322497971867  -0.1598978858213991 
H  -0.23894267289740156  4.508333350599489  0.5755628356877943 
H  -0.633817437822122  3.196134833422991  1.4030627218179768 
C  4.66349429622182  2.8644050962934204  -0.25457830803889797 
H  5.13101310138039  2.301639174197578  0.39726052461126676 
H  4.905421444702019  3.8030340226403956  -0.10907451615371835 
H  4.920222947957146  2.597270846294082  -1.1624468568142545 
C  3.2253415358804296  0.22703299599253385  -0.4685954159461135 
H  4.205983023949514  0.3522582467914643  -0.41819096733263955 
H  2.999923860696834  -0.03565855095873611  -1.3963232655201168 
C  2.8197467272090844  -0.8991740895472317  0.4770548744143948 
H  2.7619181413228713  -0.5481382159268076  1.40031892119947 
H  3.5124446861244616  -1.606806374509905  0.46211141454090426 
C  1.038768585630675  -2.9577491290512765  1.2494285766796178 
C  0.8168803228761443  -4.291109512930348  0.882186877585359 
H  0.7403287855539322  -4.518758549230471  -0.03637388709232548 
C  0.7067042018737785  -5.286029953418398  1.8505289243126237 
H  0.5433114116540585  -6.184458871865912  1.5895897655007516 
C  0.8363269911438695  -4.967698324711167  3.197703804076381 
H  0.7564431813313504  -5.645021262148728  3.8585846143219236 
C  1.0835098122642353  -3.6540888367852924  3.5708129920818474 
H  1.1935255741037707  -3.437283171645679  4.489927813913269 
C  1.1714789059975461  -2.649744901457976  2.6076570503367007 
H  1.3222947977662092  -1.7511153140870492  2.8746823702814095 
C  1.5712046742895773  -2.582714312083444  -1.510140689991484 
C  2.8647843170647636  -2.8222638035089602  -1.9908016504984172 
H  3.6155936640041975  -2.48078269693606  -1.5203198140773473 
C  3.0525488523718094  -3.5614834195509086  -3.159195971153803 
H  3.9311298233176717  -3.695731176519798  -3.4973544506284946 
C  1.9635505393268153  -4.102426333569887  -3.832052090957902 
H  2.099355104225588  -4.607969781717116  -4.624930033763761 
C  0.6721522897668089  -3.9035839206986687  -3.34552638158894 
H  -0.07380307939250397  -4.287137488823057  -3.791411330428254 
C  0.4881389233421586  -3.1362292206761335  -2.1973299762076883 
H  -0.3919098512112289  -2.98536152518055  -1.8755505442003635 
Br  -1.5839191898578664  1.5839191898578664  0.0 
C  -1.29374738  -1.23987949  -0.45980057 
C  -1.6015622  -1.49386547  -1.79197911 
H  -1.13094174  -1.04282176  -2.48087966 
C  -2.60218399  -2.41188997  -2.12154241 
H  -2.82315865  -2.56261387  -3.0327005 
C  -3.26832081  -3.09759503  -1.14306437 
H  -3.95960209  -3.70719172  -1.36832808 
C  -2.93474499  -2.89608732  0.14198827 
H  -3.36683509  -3.40560694  0.81710224 
C  -1.96755092  -1.95161757  0.51124219 
H  -1.77552984  -1.8022912  1.43013249 
