65

Pd  0.0  0.0  0.0 
P  1.5337779141714096  1.4627458118210417  0.0 
N  1.5337779141714096  -1.4627458118210417  0.0 
H  1.7604287240613097  -1.779476508471077  -0.783123742569368 
C  2.77329486414214  -0.8527383362985863  0.6046555635583113 
H  2.5651494212275257  -0.6308912611762127  1.536609644966586 
C  3.0498781871344423  0.45194602825557717  -0.12185799056882662 
H  3.266886548315047  0.28048834369193565  -1.0521244704453285 
H  3.7965509602172327  0.9164270095097018  0.28879977203904805 
C  1.6939128700534518  2.8121323655536496  -1.185214079611915 
C  2.1012696223277234  2.5391850518279986  -2.4694691400678184 
H  2.257541003749014  1.6563330350498486  -2.7198098715108614 
C  2.2834502336589333  3.539051151720777  -3.3922256394435895 
H  2.582856846744618  3.3388336309230953  -4.2503473350125685 
C  2.0220861857239436  4.81784818869281  -3.041997909703932 
H  2.1606967641428083  5.49496729031371  -3.6622290922242065 
C  1.5656789214155618  5.130328358730663  -1.8147621489718206 
H  1.3593981109976743  6.011053280032037  -1.6008740234200967 
C  1.4057408744471445  4.112083713650646  -0.8622298640083061 
H  1.101770158496968  4.3221953048213475  -0.007725672619828011 
C  1.5299140761430559  2.2327687719946594  1.6289314447088312 
C  2.6902088239212967  2.6401328370184878  2.226877994833109 
H  3.507669448773373  2.481179601178736  1.810500070787467 
C  2.6545669304876887  3.2873318939902685  3.4467898629970932 
H  3.4555023114015686  3.51955265118192  3.8580200850499793 
C  1.5507050070308115  3.5739541537238635  4.028240517969067 
H  1.553686145904879  4.0105193141497875  4.848905829477554 
C  0.3671732988764529  3.2307955024096664  3.432306061991316 
H  -0.43749479996405305  3.4715384784989967  3.8314558210693845 
C  0.3589934120859144  2.52056215112997  2.226691722253224 
H  -0.44429910335121336  2.250119975323968  1.8440731599904403 
C  3.9449736966495568  -1.8010230476888265  0.6184058216523026 
C  4.420277967385147  -2.2965371104484036  1.8197372346387752 
H  4.009008257529419  -2.048914087314215  2.616694676519507 
C  5.504786340711321  -3.1577003691774  1.8427537504632863 
H  5.799040888107882  -3.5037797124980106  2.654191264670777 
C  6.13195635530913  -3.4942404747936626  0.7114406284227035 
H  6.883729216120725  -4.038811365759546  0.742232193173415 
C  5.672187558872463  -3.0388600220745854  -0.4851334341010374 
H  6.09369840641466  -3.294632752357933  -1.273135912426876 
C  4.572852035386416  -2.190935905678795  -0.5300839584150645 
H  4.262799612747503  -1.8861176683632404  -1.3508143876155478 
C  1.0738236804902168  -2.617755586141761  0.7608700113306904 
C  1.2480146490030786  -3.8824577135038103  0.26262391196365337 
H  1.6563125588658918  -4.012533443998041  -0.5628104047073154 
C  0.8059991808438965  -4.967055124194669  1.009636443739878 
H  0.9031459382718277  -5.828427373438306  0.672026482757978 
C  0.23583076176269357  -4.783337462637709  2.2208673278881452 
H  -0.04734202264620624  -5.5189111906940465  2.715059289339779 
C  0.06819933940456013  -3.496871287316865  2.7371663652623677 
H  -0.32621472799393736  -3.3713045972496833  3.5700173842229805 
C  0.4941648237733134  -2.4112183890713514  1.9952227551021053 
H  0.3906896090468679  -1.547182594344615  2.325398595175631 
Br  -1.654629867976521  1.654629867976521  0.0 
C  -1.3788582233137676  -1.3788582233137676  0.0 
C  -2.618821778986925  -1.1522995256591737  0.5874691967409313 
H  -2.8106553971707884  -0.30966242518610043  0.9782000501948407 
C  -3.5854032518711887  -2.161278806785389  0.6049610958635797 
H  -4.421117162155692  -2.007227978208148  1.0287619599160838 
C  -3.3399450833386255  -3.3715361338635086  0.016423527177974573 
H  -3.9908757182151104  -4.061238805801311  0.045080339651694 
C  -2.164680252095028  -3.57422256025893  -0.6007549227026177 
H  -2.0132444416912625  -4.3986257169530365  -1.0474288760065327 
C  -1.1561711193052586  -2.601214672555715  -0.5998012209931929 
H  -0.3196784027493984  -2.7832859823079534  -1.0129111498427692 
