39

Fe  0.0  0.0  0.0 
N  1.111033929499905  1.50416209482223  5.29454233439053e-16 
N  2.315308837519278  2.5863852213080665  -1.5292700416912106 
N  1.1110339294999048  -1.5041620948222305  2.220446049250313e-16 
N  2.119806932602196  -2.6450663470350335  -1.6028466225733509 
C  1.730944825098453  2.6232934542645423  0.5941636995231436 
C  1.631241849346164  3.095294685012155  1.9166587334642577 
H  1.1526223148179886  2.6389529234674165  2.5711835059811756 
C  2.280888176890144  4.26312370825822  2.1751500903270733 
H  2.197492450316675  4.635414119595957  3.0230232367442067 
C  3.0415404684557608  4.912675690297409  1.2608299855689107 
H  3.4830375837611625  5.692083770075245  1.511058405925288 
C  3.178999643904633  4.444462066629919  -0.04456085540445032 
H  3.706008070473046  4.8850091740733586  -0.6706690125539393 
C  2.4815189008087626  3.2798273965832467  -0.3564615260285006 
C  1.487575553813946  1.5278428903446097  -1.27193515364676 
C  0.9518829423864772  0.6994532578115136  -2.3678920564370864 
C  0.5327559707982072  1.401120354484851  -3.516225547690081 
H  0.6120394268590719  2.3273144161459047  -3.5326192580341793 
C  0.016185241498611003  0.7629661001633155  -4.602770516535019 
H  -0.2654199223112108  1.2511415850579697  -5.342944352646173 
C  -0.0872584520396753  -0.6115635679602187  -4.600520246470888 
H  -0.44530267608925156  -1.0489836055112638  -5.339469787626171 
C  0.33969353135867864  -1.355552752272338  -3.4981709926049387 
H  0.2728870184337453  -2.282480192339746  -3.506800632278276 
C  0.8800607610828381  -0.692693032277974  -2.3649456581505577 
C  1.3642320298435224  -1.5807459087585962  -1.31113047460021 
C  2.3924118465191286  -3.3035683717899262  -0.4263835529013477 
C  3.124876399752501  -4.455770794631082  -0.1746071539763766 
H  3.5253216785054207  -4.939258543393924  -0.8592743764434513 
C  3.2261454319523484  -4.844262784298632  1.1415491388253292 
H  3.730618338089828  -5.595820920148084  1.3565214054359698 
C  2.601280427378786  -4.148751503565526  2.1403962915130332 
H  2.6903349386285953  -4.451268095072759  3.0156678755878943 
C  1.8370688074192847  -3.001359669307151  1.8977474328796122 
H  1.4029491412699298  -2.54256258395608  2.5813070571522694 
C  1.7685213685099508  -2.593411744603915  0.5719400300682783 
Cl  -1.5202795795510768  1.5202795795510768  0.0 
Cl  -1.5202795795510768  -1.5202795795510768  0.0 
