55

Pd  0.0  0.0  0.0 
P  1.562505390390702  1.4320184722970577  4.917138520426784e-17 
N  1.562505390390702  -1.4320184722970581  -5.551115123125783e-17 
C  1.8212172936240898  2.420523161576204  1.5081094789167455 
C  1.7570478283588868  3.718413137128453  1.1118627867052413 
H  1.8215898730578457  4.430193557366328  1.7376819761138795 
C  1.591422197216644  3.966126216158076  -0.2827456998552102 
H  1.5672031374765938  4.847757591328008  -0.636193879170492 
C  1.4688065079046393  2.8662112601216276  -1.0790150401050351 
C  3.031605745550322  0.46601488940958746  -0.49537198580310443 
H  3.2195901679162953  0.6183240908754994  -1.4560294034586374 
H  3.817468988171287  0.7714678451234596  0.022428589460144338 
C  2.8166116870534816  -0.992434844587109  -0.25711406208171617 
C  3.879752537872105  -1.8724210838558117  -0.32946280096808805 
H  4.756076061381741  -1.546255319212582  -0.5010761341283678 
C  3.66343802172444  -3.232909476770799  -0.1520865825863576 
H  4.3821010220535985  -3.852631950445639  -0.20305605953344066 
C  2.377128808063446  -3.6603195010410947  0.10166957596776727 
H  2.20316436562869  -4.586541250731525  0.22506687402879785 
C  1.3475443106430811  -2.756991628513723  0.17745478156135697 
H  0.46785630636693254  -3.065757345265091  0.3571735821685281 
C  1.8610159870809282  2.6816985599633942  3.9903016079181683 
H  1.752648335074916  3.6187955674115124  3.8778659346179065 
C  1.9328418620951726  2.1664887080845068  5.252573394105825 
H  1.8772721002190649  2.7462055700243906  6.003161251420088 
C  2.085296702156132  0.8040499073682001  5.447939271486475 
H  2.121950565030172  0.44666093166661236  6.326918374982887 
C  2.181529277983154  -0.03118421016480699  4.350385828478531 
H  2.2786528253344405  -0.9682858334751705  4.471885722054538 
C  2.134236617564703  0.5078964266664336  3.0608656110084076 
H  2.236606439913917  -0.06825421730993098  2.312620066472519 
C  1.943205864952136  1.8580189372362113  2.8519565446445014 
C  1.3427066566838854  2.8053032713719497  -2.552609090184185 
C  0.9681439350974255  1.6076625054334004  -3.1974136523267735 
H  0.8008664073238074  0.8222119880278713  -2.6892807628093234 
C  0.8470285220200667  1.5877314147721053  -4.57542036433514 
H  0.6025351206809004  0.77834368170691  -5.0090434774935515 
C  1.072295406300014  2.7155644184967715  -5.332651482657827 
H  0.9833042930491713  2.6870104851565046  -6.279233420290897 
C  1.429542652585671  3.8883791673917183  -4.696919031232081 
H  1.5747036376340322  4.673538791203306  -5.2111045167874535 
C  1.5771912744259058  3.9371358289507046  -3.338488715602188 
H  1.841919100513828  4.7505073549001136  -2.9234666091192913 
Br  -1.654629867976521  1.654629867976521  0.0 
C  -1.35204078  -1.31992066  -0.4819701 
C  -1.63807002  -1.59921746  -1.81393823 
H  -1.15796809  -1.15933936  -2.50351594 
C  -2.63068217  -2.5263265  -2.14228996 
H  -2.83682226  -2.69439953  -3.05388981 
C  -3.31015444  -3.19615732  -1.16198741 
H  -3.99601236  -3.81199015  -1.38686634 
C  -2.99747104  -2.9701089  0.1242356 
H  -3.43865917  -3.46858118  0.80170842 
C  -2.03898543  -2.01594063  0.49125628 
H  -1.86191301  -1.84921651  1.41015686 
