76

Pd  0.0  0.0  0.0 
P  0.12939261586146544  2.1854291388153766  1.092385325204456e-15 
N  2.0645358753542213  0.02207255580836803  -2.708871731005791e-15 
H  2.3910183961073335  0.027771329406041628  -0.9455078516977956 
C  1.9536643804151597  2.4532078550979333  -0.03246133327850954 
H  2.2687838198426222  2.5425210504633626  -0.9675668364323198 
H  2.185332360326589  3.2815771835028658  0.45873444524744644 
C  2.609178958887745  1.2491647803548034  0.6292489443906688 
H  3.5910895970582324  1.2861071103930461  0.5071283363878835 
H  2.4144288625444923  1.2482657855984667  1.600352508271846 
C  -0.4900965506850097  3.0889551734887215  1.5037418918148877 
H  -0.5596101537941283  4.05858967386528  1.2722310180696308 
C  0.4491000506761278  2.960326823579474  2.7062965274100095 
H  0.5629065530166959  2.013968886015849  2.931717187588547 
H  0.06498203127990732  3.434495257934327  3.474038178642111 
H  1.3210395796967433  3.350903753386888  2.4828590649433893 
C  -1.8878478608504292  2.5988864096790394  1.8987733103994116 
H  -2.483139336653193  2.6476045609050822  1.1226192080603952 
H  -2.241504374682971  3.16410033727929  2.6162465337816596 
H  -1.833125157430622  1.6710001309659026  2.2100389035932553 
C  -0.46555455835561554  3.2380061915056237  -1.4132524679055132 
H  -0.21476348088958486  2.752409140537499  -2.2505656886028143 
C  0.1939495202124989  4.618926445575173  -1.50464914318702 
H  -0.021006372805394524  5.136553785115132  -0.7000935196172983 
H  -0.1421390621498716  5.088432399067675  -2.2961243256411183 
H  1.164984183745176  4.512657151859676  -1.5747687512235067 
C  -1.987935164475571  3.384259261466328  -1.442977535389148 
H  -2.4023789429397198  2.5051923340482656  -1.3206210823017563 
H  -2.2632796087768536  3.758410823409261  -2.3070591204770854 
H  -2.272789693177552  3.9845792961049114  -0.7229610678764227 
P  0.20607150878431402  -2.2075016946237453  1.6303641936091494e-15 
C  2.038577318695119  -2.4114511209159732  -0.03246133327850894 
H  2.35662178144147  -2.4897123992587553  -0.9675668364323191 
H  2.2990138453777655  -3.2312307332068384  0.4587344452474472 
C  2.6516720780812424  -1.1852643878119777  0.629248944390669 
H  3.634273831546647  -1.1879160265019282  0.5071283363878837 
H  2.4570092437701767  -1.1911626210440973  1.6003525082718464 
C  -0.38150767783223194  -3.132097185774346  1.5037418918148886 
H  -0.4171391790840082  -4.103567000774407  1.2722310180696317 
C  0.5526277256620933  -2.970769704088239  2.7062965274100104 
H  0.633337484434997  -2.021016472557284  2.9317171875885477 
H  0.18529194029596463  -3.458054813395774  3.474038178642112 
H  1.4376670309545339  -3.330678454265215  2.48285906494339 
C  -1.7955106688720497  -2.6911077758543973  1.898773310399412 
H  -2.388739270233927  -2.760571622195839  1.1226192080603958 
H  -2.1292260631093516  -3.268319824739839  2.6162465337816605 
H  -1.773204065168853  -1.7618769455840517  2.2100389035932553 
C  -0.35177883030967716  -3.2802009027579238  -1.4132524679055123 
H  -0.11808762067089684  -2.786147182011816  -2.2505656886028134 
C  0.3555169180462944  -4.637263577104637  -1.5046491431870186 
H  0.1587569039799127  -5.162077444534732  -0.7000935196172969 
H  0.03601859324320544  -5.118212842627799  -2.2961243256411175 
H  1.322251308632825  -4.497170398733599  -1.5747687512235058 
C  -1.8681278847649077  -3.4794951962432688  -1.4429775353891472 
H  -2.3129981886118163  -2.6154276519256774  -1.320621082301756 
H  -2.1302468954680167  -3.8630282176898487  -2.3070591204770845 
H  -2.1318580207152005  -4.089390811821981  -0.7229610678764217 
C  -2.8765119091229057  0.02305937515421283  1.057581078630324 
H  -2.524991515188396  0.028133881368926063  1.918082788120092 
C  -4.2688171891084945  0.039953244356467396  0.90908830268642 
H  -4.817749683457313  0.046026744943651485  1.6596515839882504 
C  -4.798540790523818  0.04765294897079332  -0.3091334179590788 
H  -5.722890839009144  0.0627602043848457  -0.4093799575454926 
C  -3.974981915211736  0.03303620401503923  -1.4431750087578945 
C  -2.5656007898512705  0.028462287876443462  -1.2561952965726637 
C  -1.6798848021980188  0.025241675806029356  -2.354029408300532 
C  -2.2099144962736057  0.03607691374540244  -3.5996329612085134 
H  -1.6398397781864162  0.03896049498645074  -4.334612049861406 
C  -3.578497421566287  0.04410696678814971  -3.8053663927296517 
H  -3.9079503730932497  0.05556849650533342  -4.675698539709597 
C  -4.4382821198755344  0.036149775717541396  -2.78463763068582 
H  -5.352438627266537  0.03169233986150195  -2.9547332545573255 
N  -2.050060697055175  3.3133218391157016e-15  0.050060697055174685 
S  0.05006069705517513  4.440892098500626e-16  -2.0500606970551747 
N  -3.3306690738754696e-16  -2.220446049250313e-16  3.0971743285133257 
C  0.0  0.0  1.95 
