59

Pd  0.0  0.0  0.0 
P  1.5442887739992146  -1.4516446474602516  -1.1561381096939439e-15 
N  1.544288773999215  1.451644647460252  -1.7777519710115856e-16 
H  1.249635861351797  2.1038759953018205  0.6983141914361894 
C  2.9852701069054923  -0.47232165509622365  0.4791623679326812 
C  4.205320487246788  -1.0034274366308953  0.9054259345784587 
H  4.329145785539281  -1.9453006301787223  0.9246129817402979 
C  5.227061511676119  -0.1731026962691165  1.2974116161298075 
H  6.057196976534058  -0.5401917844507949  1.578293639981537 
C  5.045953552728789  1.1979607650829136  1.2825269881086667 
H  5.746271955150661  1.7695015422638642  1.57453763046386 
C  3.854353537036463  1.7417068715291273  0.8461872645827744 
H  3.7414564168267352  2.684548900667994  0.8166805138695369 
C  2.8277033317436313  0.9060279626980895  0.4529316132474159 
C  2.0989120464290982  -2.46038439142028  -1.4100677411509996 
C  3.2115804395276015  -2.0967992668352693  -2.149610055139982 
H  3.7503477458997017  -1.3663320985408787  -1.8692572673376389 
C  3.539427327747335  -2.8001721837446425  -3.3016473668808177 
H  4.296563288894119  -2.5396097377894558  -3.81251196547441 
C  2.778689077622839  -3.869767141240959  -3.7081662861158367 
H  3.0129515638646076  -4.34590458383703  -4.496261282482323 
C  1.6845411945753896  -4.250065519336358  -2.978360391620023 
H  1.1653699642663407  -4.996175813542953  -3.254638082536887 
C  1.3324492779944945  -3.545546870926568  -1.8318517233923028 
H  0.565581829311838  -3.804466707580525  -1.3347206598506423 
C  1.31296373833994  -2.571995125688795  1.418861823367713 
C  1.841628686997076  -3.8592808352247894  1.4528411418682752 
H  2.2885527358930036  -4.2160539862201905  0.6940849535921556 
C  1.706854581914751  -4.615871683351122  2.6114240776699367 
H  2.0555596705002674  -5.4992335255509435  2.6391505440857 
C  1.0780265726725267  -4.103191130777817  3.712798612424406 
H  1.0069051577183865  -4.623521806278538  4.504255226818345 
C  0.5469988098640395  -2.8343463461932803  3.677319495197063 
H  0.10001584147904685  -2.484194884615341  4.439062279822285 
C  0.6666549609147461  -2.064595748514315  2.5231124544593135 
H  0.3015396231497347  -1.1877392690535913  2.4970723976911864 
C  1.6918131644173586  2.214865206939727  -1.2516718027580656 
C  1.4147451719394735  3.572326847739774  -1.2440428250599043 
H  1.1587233785925795  4.011051921478895  -0.44141795564452146 
C  1.5180328336934776  4.269950124050396  -2.422126257283237 
H  1.3106472859181557  5.19639323624933  -2.435070925416684 
C  1.9129497316751178  3.657688685581284  -3.5735060836882018 
H  1.994127211024888  4.159686489434278  -4.375647799205585 
C  2.1959448225520974  2.299443347474882  -3.5707420193341193 
H  2.465493097181846  1.868070634396942  -4.372736732568503 
C  2.0841137636284945  1.5696530252679415  -2.3898405162979257 
H  2.277510520543649  0.6395282923573888  -2.375852105281174 
Br  -1.654629867976521  1.654629867976521  0.0 
C  -1.352040782177733  -1.3199206589279684  -0.4819701001757076 
C  -1.6380700204479186  -1.599217458033982  -1.8139382277462257 
H  -1.1579680913617836  -1.159339363685303  -2.503515938957912 
C  -2.63068216563725  -2.52632649780156  -2.142289956238523 
H  -2.8368222554424674  -2.694399528648736  -3.0538898079700485 
C  -3.3101544432602585  -3.1961573187854975  -1.1619874135498987 
H  -3.9960123560788676  -3.811990145619169  -1.3868663427944008 
C  -2.9974710358883443  -2.9701089012107795  0.12423560353005347 
H  -3.438659168087169  -3.468581175155742  0.8017084178296768 
C  -2.0389854250767776  -2.015940632791841  0.4912562833419403 
H  -1.8619130127668426  -1.8492165108145995  1.4101568590026907 
