30

Ru  0.0  0.0  0.0 
S  1.61034  1.3881  0.0 
N  1.61034  -1.3881  0.0 
N  2.90142  -0.98487  -0.33368 
N  4.48397  -4.85518  0.03895 
H  5.50977  -5.05471  -0.06946 
N  4.02841  0.97147  -1.05646 
H  4.28909  1.94076  -0.76394 
C  1.32558  -2.81871  -0.03054 
H  0.60079  -3.02251  0.78388 
C  2.48994  -3.78671  0.09122 
C  2.30134  -5.11309  0.40129 
C  3.52045  -5.73357  0.34512 
C  3.87276  -3.65256  -0.11606 
H  4.43094  -2.77236  -0.38177 
C  1.13826  -5.80674  0.72104 
H  0.18105  -5.30267  0.78674 
C  1.23986  -7.1811  0.97572 
H  0.34805  -7.73786  1.23016 
C  2.48936  -7.83402  0.89127 
H  2.55108  -8.89465  1.06976 
C  3.65065  -7.10088  0.57268 
H  4.61767  -7.59096  0.50481 
C  3.13347  0.40522  -0.03454 
C  5.25181  0.17401  -1.21628 
H  5.57969  -0.27741  -0.2537 
H  6.07674  0.80683  -1.60718 
H  5.06816  -0.6368  -1.9546 
Cl  -1.58392  1.58392  0.0 
Cl  -1.58392  -1.58392  0.0 
