67

Ni  0.0  0.0  0.0 
C  2.9704119132564983  0.4779613527704972  -0.12063999843165873 
H  3.4677469209445686  0.7730962753971784  -0.9103016522898469 
C  3.754308677053327  0.8643134374329424  1.1315326894935558 
C  4.9646152965028625  0.3812138788570036  1.4495774873136025 
H  5.324371761118192  -0.29721591911310996  0.9263984019195903 
C  5.759335522400193  0.892079117879555  2.6161900965837876 
H  6.697582549831925  0.9331317084675588  2.3719632137031983 
H  5.669703178534998  0.2785385416777743  3.3603218955866447 
C  5.290114334310844  2.2744274790997485  3.0427495119995833 
H  5.539106637040039  2.92581480944314  2.366697421514155 
H  5.724929127520383  2.5227577513035375  3.8736391987290486 
C  3.7736906506766337  2.293985097628476  3.233749646216219 
H  3.5312409694672278  1.705122085490106  3.9659039981235065 
H  3.486688106198822  3.191477561449388  3.463523354128895 
C  3.0713648189376026  1.8465120398227632  1.9722753624473537 
C  1.8668515166324673  2.284555714325719  1.5270992357313096 
C  0.9881042202214322  3.2860531293218798  2.149279287489898 
C  0.8058055156335082  3.359921269306674  3.5382863321807316 
H  1.1956520185053074  2.728853745666233  4.100478438853313 
C  0.03307381542413168  4.391293492766645  4.059594836012015 
H  -0.08642499959785188  4.475697405044666  4.977957788662264 
C  -0.5549359167068546  5.288088526236737  3.1897540903219403 
H  -1.0708891589795149  5.993479672058642  3.5101216810429863 
C  -0.36067764164626115  5.1134629513322185  1.8363082320919846 
H  -0.7919389356675273  5.701291561519234  1.2569536245115278 
C  2.687527074278863  -0.9926521644580752  -0.2442532696496168 
C  3.6845108345129134  -1.877110549988679  -0.6000629885924356 
H  4.528727172542496  -1.557173960028622  -0.8269683719764576 
C  3.435921681570072  -3.2427488304728453  -0.6210527459850521 
H  4.103968338182821  -3.843037976899829  -0.8630805445340554 
C  2.1658702219636523  -3.694262076768027  -0.27270094338942097 
H  1.9845848541766886  -4.6050250367700585  -0.22759233983440122 
C  1.177282051139128  -2.7642542025568724  0.005067003665480364 
H  0.31984209969757393  -3.0659296896181973  0.20104233420032158 
C  1.3133549722722162  2.579207416757804  -1.4119908155660872 
H  0.4720567514772167  3.0752645522257764  -1.3300914136238413 
C  2.4555572827275842  3.6111383944479694  -1.4609413954794175 
H  2.4674016706599327  4.124870903381496  -0.6381818378081754 
H  3.3057718501118307  3.15329927582208  -1.5449100852601527 
C  2.252568210116215  4.550386776999513  -2.6545261525346837 
H  2.987891573677855  5.179437512417846  -2.6992325644915263 
H  1.4315046621395922  5.053046981013204  -2.533919935924818 
C  2.178700892653363  3.7489751077792253  -3.966944476030848 
H  2.017189604391719  4.356757358825836  -4.706541108714359 
H  3.0256623406351384  3.3063566572872984  -4.12227210691716 
C  1.0720813740301938  2.717663686010704  -3.9104904918310326 
H  1.0736345840912103  2.200032871914345  -4.7311081846919825 
H  0.21501427382650928  3.168021499067834  -3.843010672871102 
C  1.2459457233800766  1.7745770441273347  -2.7122842349927616 
H  0.5004033054543906  1.1548007614243507  -2.6737661551808225 
H  2.061185227380399  1.2595407556756044  -2.8190975894723964 
N  1.414407337898103  -1.4420651450263953  1.61799977440783e-15 
N  0.40220225463544956  4.156975091018008  1.3012605828861188 
P  1.4144073378981037  1.4420651450263953  -3.986466513268852e-16 
Br  -1.5839191898578664  1.5839191898578664  0.0 
C  -1.308147545195113  -1.308147545195113  0.0 
C  -2.5481111008682706  -1.081588847540519  0.5874691967409313 
H  -2.7399447190521347  -0.23895174706744582  0.9782000501948406 
C  -3.514692573752534  -2.090568128666735  0.6049610958635798 
H  -4.3504064840370384  -1.9365173000894942  1.0287619599160838 
C  -3.2692344052199704  -3.300825455744854  0.016423527177974795 
H  -3.920165040096455  -3.990528127682657  0.045080339651694334 
C  -2.0939695739763726  -3.5035118821402764  -0.6007549227026172 
H  -1.9425337635726068  -4.327915038834382  -1.0474288760065322 
C  -1.0854604411866036  -2.53050399443706  -0.5998012209931928 
H  -0.24896772463074335  -2.712575304189299  -1.0129111498427692 
