29

Fe  0.0  0.0  0.0 
O  3.22231  1.83382  -1.07124 
O  0.76956  -2.72902  -0.31132 
N  1.17149  -1.48328  0.0 
C  1.17149  1.48328  0.0 
H  0.83159  2.32646  -0.64161 
H  1.18518  1.83369  1.05378 
C  2.56912  1.09012  -0.36311 
C  2.50091  -1.3097  0.45909 
C  3.20234  -0.08986  0.26551 
C  4.55215  -0.00074  0.63936 
H  5.10942  0.91464  0.47655 
C  5.19474  -1.08056  1.24606 
H  6.22906  -0.99153  1.54781 
C  4.50268  -2.26935  1.46524 
H  4.99638  -3.10576  1.94552 
C  3.17255  -2.38793  1.05234 
H  2.66098  -3.32854  1.22218 
O  -1.26572  1.26572  0.0 
C  -2.2417  2.25989  0.06429 
H  -2.52689  2.54342  -0.97108 
H  -1.83366  3.1543  0.57553 
H  -3.13611  1.87043  0.58896 
C  -1.35057  -1.35057  0.0 
C  -2.40187  -2.43737  -0.07397 
O  -1.02278  -0.88547  1.218 
H  -2.43685  -2.76288  -1.1391 
H  -2.12111  -3.31369  0.54208 
H  -3.40103  -2.04157  0.19365 
