77

Pd  0.0  0.0  0.0 
N  2.12941  0.02014  0.0 
C  2.90081  1.17412  0.38248 
C  4.32345  0.78158  -0.02022 
H  4.40736  0.82034  -1.13718 
H  5.13572  1.40961  0.40551 
C  4.37714  -0.68694  0.41626 
H  4.77624  -0.76608  1.44343 
H  5.0074  -1.28464  -0.28821 
C  2.89183  -1.07374  0.53138 
C  2.48531  -2.44588  0.12659 
H  3.25681  -3.21383  0.10552 
C  1.21491  -2.82351  -0.06671 
O  0.14406  -1.97123  0.0 
O  0.99129  -4.1525  -0.25607 
C  -0.26493  -4.71423  -0.36828 
H  -0.78117  -4.35065  -1.27625 
H  -0.87222  -4.44303  0.47627 
C  -0.18861  -6.22303  -0.28622 
H  0.40452  -6.61189  -1.13258 
H  -1.22045  -6.63775  -0.30911 
H  0.27987  -6.52492  0.67867 
C  2.43569  2.46503  -0.20904 
H  3.18182  3.22591  -0.43291 
C  1.14701  2.80732  -0.28933 
O  0.12653  1.95109  0.0 
O  0.8639  4.10727  -0.59172 
C  -0.39432  4.68299  -0.51393 
H  -0.30749  5.78636  -0.42009 
H  -0.90319  4.36434  0.37859 
C  -1.27852  4.28087  -1.66615 
H  -0.82069  4.63965  -2.60547 
H  -2.28116  4.7394  -1.52235 
H  -1.39601  3.17763  -1.68358 
N  -1.92705  0.0  -0.07295 
H  -2.57562  -0.03948  0.72343 
N  -3.79114  0.00733  -1.68351 
H  -4.45965  -0.00457  -0.89327 
H  -4.17515  0.00791  -2.64583 
N  -0.07295  0.0  -1.92705 
C  -2.3811  0.00383  -1.40774 
C  -1.40638  0.01835  -2.38493 
C  -1.68786  0.02692  -3.83745 
H  -2.68042  0.04523  -4.2516 
C  -0.62533  0.04741  -4.67181 
H  -0.79204  0.07143  -5.74248 
C  0.77237  0.02998  -4.15891 
H  1.59783  0.03752  -4.86076 
C  1.01918  0.00583  -2.83728 
H  2.04332  -0.00292  -2.48381 
N  -0.17193  -2.52793  2.3273 
N  -0.20662  2.52323  2.27787 
C  0.0  0.0  1.95 
C  0.26338  -1.22049  2.725 
C  0.91964  -1.14703  3.97484 
H  1.15749  -2.01955  4.5599 
C  1.29445  0.03504  4.53712 
H  1.81126  0.04977  5.48784 
C  0.9348  1.1997  3.93346 
H  1.18638  2.0978  4.47438 
C  0.26561  1.2316  2.6931 
C  -1.62575  -2.63324  2.23547 
H  -2.00707  -3.58535  1.84884 
H  -2.01861  -1.86782  1.56223 
H  -2.08311  -2.52298  3.23493 
C  0.5722  -3.69472  2.80653 
H  0.3174  -4.61239  2.25588 
H  0.37396  -3.90137  3.87336 
H  1.66309  -3.52632  2.6436 
C  -1.65404  2.60208  2.16949 
H  -2.04152  3.5697  1.82469 
H  -2.12183  2.41758  3.15362 
H  -2.02313  1.86468  1.45389 
C  0.55436  3.71419  2.66214 
H  0.29818  4.58746  2.05639 
H  1.63649  3.52812  2.48189 
H  0.36552  3.98045  3.71749 
