118

Fe  0.0  0.0  0.0 
P  1.42151  -1.46895  0.0 
O  1.42151  1.46895  0.0 
O  -0.20638  -2.97554  -2.05908 
H  -0.44297  -2.20504  -1.59234 
C  2.81685  -0.37619  0.34118 
C  2.65158  1.00738  0.29649 
C  3.71058  1.87439  0.69418 
C  3.56262  3.40091  0.66301 
C  3.33064  3.81795  -0.80712 
H  3.17405  4.90592  -0.89151 
H  2.448  3.3053  -1.24457 
H  4.21816  3.52536  -1.41173 
C  2.39397  3.85806  1.55683 
H  2.25018  4.9594  1.49017 
H  2.57759  3.58559  2.62059 
H  1.45994  3.39511  1.26273 
C  4.8121  4.16291  1.17455 
H  4.65809  5.26043  1.12334 
H  5.705  3.91582  0.56275 
H  5.01251  3.90609  2.23988 
C  4.88758  1.28268  1.18259 
H  5.69303  1.90237  1.51789 
C  5.06983  -0.12527  1.2816 
C  6.3496  -0.74252  1.8582 
C  7.34299  0.2993  2.42776 
H  6.86133  0.88484  3.24134 
H  7.69161  0.99023  1.63212 
H  8.24362  -0.19389  2.85327 
C  6.00562  -1.72098  3.01602 
H  5.35328  -2.55088  2.67382 
H  5.49997  -1.19257  3.84799 
H  6.93567  -2.19305  3.40819 
C  7.06664  -1.52463  0.75948 
H  6.40138  -2.32834  0.41966 
H  7.99423  -2.00441  1.1367 
H  7.32709  -0.85222  -0.08787 
C  4.01254  -0.92103  0.83626 
H  4.09839  -1.99551  0.91539 
C  1.29525  -2.86438  1.15461 
C  1.76983  -2.58055  2.46669 
H  2.22251  -1.62749  2.71174 
C  1.59675  -3.48619  3.51167 
H  1.90959  -3.22038  4.51803 
C  0.95251  -4.69275  3.27454 
H  0.76265  -5.36791  4.10084 
C  0.53276  -5.01855  1.97917 
H  0.02358  -5.94933  1.8068 
C  0.70501  -4.10857  0.91175 
H  0.33007  -4.37061  -0.05633 
C  2.01131  -2.45932  -1.4568 
C  1.07245  -3.10063  -2.30032 
C  1.41528  -3.80322  -3.45943 
C  0.29321  -4.44772  -4.34454 
C  -0.51794  -5.47149  -3.51552 
H  0.15753  -6.24541  -3.10015 
H  -1.2954  -5.95859  -4.1398 
H  -1.06589  -5.01796  -2.6642 
C  -0.66907  -3.36945  -4.9179 
H  -1.44449  -3.83582  -5.56806 
H  -0.12127  -2.61567  -5.52158 
H  -1.23079  -2.82399  -4.14636 
C  0.87101  -5.19456  -5.56236 
H  1.54994  -6.0028  -5.22559 
H  1.41421  -4.48808  -6.22664 
H  0.05559  -5.65487  -6.1602 
C  2.76773  -3.84119  -3.79349 
H  3.04776  -4.35782  -4.68226 
C  3.74156  -3.14036  -3.04676 
C  5.19951  -3.00351  -3.51167 
C  5.47407  -3.78494  -4.81908 
H  4.74795  -3.5018  -5.61324 
H  5.4042  -4.88202  -4.6431 
H  6.4722  -3.55106  -5.23611 
C  6.18037  -3.45936  -2.41305 
H  5.95374  -2.92211  -1.49062 
H  7.22627  -3.18972  -2.67101 
H  6.11497  -4.54138  -2.18433 
C  5.47133  -1.50873  -3.7853 
H  6.51728  -1.37488  -4.13246 
H  5.3542  -0.89738  -2.86521 
H  4.78108  -1.11639  -4.56205 
C  3.33505  -2.47119  -1.87777 
H  4.06432  -1.92616  -1.33749 
N  -1.49865  1.11846  0.0 
N  -1.49865  -1.11846  0.0 
C  -1.11689  3.62036  0.09343 
H  -0.60942  3.5419  1.06363 
H  -1.6875  4.57126  0.06354 
H  -0.40969  3.59331  -0.76333 
C  -2.05458  2.45359  -0.02829 
C  -3.49273  2.54284  0.45678 
H  -3.94561  3.50546  0.6562 
C  -4.23317  1.42234  0.60316 
H  -5.26732  1.49089  0.93122 
C  -3.6438  0.07736  0.36839 
H  -4.24403  -0.8098  0.51185 
C  -2.33435  0.01324  0.09451 
C  -2.1197  -2.40726  0.03572 
C  -2.08123  -3.20163  1.18786 
C  -1.56938  -2.62806  2.47977 
H  -1.54682  -3.38304  3.29205 
H  -2.18622  -1.76558  2.78755 
H  -0.60193  -2.17539  2.36635 
C  -2.59138  -4.50841  1.14481 
H  -2.52247  -5.14189  2.01937 
C  -3.21948  -4.99291  -0.01144 
C  -3.76449  -6.38756  -0.05778 
H  -3.48015  -6.96063  0.84966 
H  -3.35837  -6.9188  -0.94553 
H  -4.87115  -6.34979  -0.12697 
C  -3.37971  -4.15134  -1.11476 
H  -3.91393  -4.50809  -1.98952 
C  -2.8519  -2.85485  -1.10138 
C  -3.07207  -1.95713  -2.30496 
H  -3.77779  -1.14292  -2.04879 
H  -3.49995  -2.51599  -3.16279 
H  -2.14341  -1.46446  -2.64418 
