131

Pd  0.0  0.0  0.0 
N  0.31198  -1.97348  0.0 
H  -0.49563  -2.45203  0.46134 
H  0.35232  -2.30248  -0.99081 
C  1.54913  -2.31902  0.70075 
H  1.37677  -2.28761  1.78454 
C  2.00726  -3.75133  0.35708 
H  1.28537  -4.4927  0.75656 
H  3.0118  -3.96006  0.78239 
H  2.0731  -3.88748  -0.74646 
C  2.63611  -1.30088  0.38854 
H  3.37994  -1.27355  1.21226 
H  3.25628  -1.69821  -0.41934 
N  2.08333  0.03128  0.0 
C  2.78052  1.15254  0.64316 
C  4.33052  1.0411  0.43815 
H  4.82451  0.75854  1.38493 
H  4.8177  1.95628  0.03475 
H  4.59941  0.24292  -0.27986 
C  2.2949  2.49371  0.16053 
H  3.06393  3.23119  -0.00948 
C  1.01381  2.83404  -0.08069 
O  0.00468  1.9422  0.0 
C  0.62291  4.22514  -0.49469 
C  1.5082  5.32421  -0.4393 
H  2.53085  5.23508  -0.11464 
C  1.08282  6.59749  -0.81508 
H  1.77703  7.42997  -0.76514 
C  -0.22682  6.80969  -1.24085 
H  -0.55153  7.80339  -1.52019 
C  -1.1162  5.74101  -1.29473 
H  -2.13754  5.90434  -1.62643 
C  -0.7003  4.46207  -0.92057 
H  -1.42214  3.65876  -0.98235 
N  0.49092  0.0  -1.88212 
O  -1.85092  0.0  -0.59788 
F  -0.8322  -0.27026  -5.46855 
F  1.02452  -1.23328  -4.73996 
F  0.83049  1.01228  -4.75205 
F  -5.67505  0.68141  2.03908 
F  -7.56567  -0.1715  1.17648 
F  -7.18066  2.04813  1.08505 
C  2.48784  1.37384  -2.55086 
H  1.91982  2.28562  -2.45185 
C  3.87076  1.46534  -2.77123 
H  4.35226  2.43404  -2.82266 
C  4.64791  0.30747  -2.84573 
H  5.7268  0.37749  -2.93224 
C  4.03367  -0.94245  -2.77334 
H  4.63793  -1.84023  -2.80289 
C  2.64825  -1.03801  -2.57494 
H  2.20503  -2.01639  -2.45781 
C  1.86551  0.11767  -2.38673 
C  -0.40275  -0.25386  -3.03523 
C  -1.83744  0.02593  -2.9155 
H  -2.37001  0.11854  -3.84052 
C  -2.48883  0.09722  -1.77428 
C  -3.96506  0.29532  -1.72311 
C  -4.57364  0.41495  -0.4596 
H  -3.96814  0.37223  0.43977 
C  -5.95347  0.61829  -0.33284 
C  -6.72838  0.70123  -1.4986 
H  -7.7933  0.87385  -1.44055 
C  -6.14703  0.57022  -2.75818 
H  -6.74943  0.64733  -3.65587 
C  -4.78266  0.36159  -2.88096 
H  -4.3966  0.27575  -3.88264 
C  0.16232  -0.17676  -4.5133 
C  -6.59105  0.79222  1.00811 
N  0.0  0.0  1.91 
C  -1.30948  0.51689  2.25189 
C  -2.04984  -0.3391  3.16639 
C  -1.38205  -0.81249  4.21218 
C  0.13715  -0.68494  4.20692 
C  0.79855  -0.32668  3.05311 
C  -2.25249  -1.40166  5.31511 
C  -2.12421  -0.59436  6.5864 
C  -1.07372  -1.15716  7.53697 
C  -1.21888  -0.37156  8.82603 
C  -0.24599  -0.78514  9.90234 
C  -0.65106  -0.00086  11.18582 
C  0.16017  -0.42478  12.39912 
C  -0.28528  0.36808  13.64753 
C  0.27692  -0.26695  14.93093 
C  -0.03862  0.555  16.20011 
C  0.96692  0.24752  17.32773 
C  0.49026  0.78903  18.68249 
C  1.48182  0.42417  19.79802 
C  1.05653  1.039  21.13269 
C  1.93997  0.54935  22.2882 
C  1.47971  1.21929  23.58728 
C  2.21727  0.71043  24.8186 
H  -1.9579  0.79403  1.42321 
H  -3.12994  -0.44492  3.04604 
H  0.70828  -0.95251  5.08429 
H  1.87917  -0.3185  3.01481 
H  -3.32542  -1.27449  5.02307 
H  -2.13006  -2.49118  5.47837 
H  -1.93765  0.48316  6.36039 
H  -3.10412  -0.65098  7.10878 
H  -1.2943  -2.23204  7.73461 
H  -0.04974  -1.07413  7.12975 
H  -1.08569  0.71223  8.61578 
H  -2.25483  -0.54686  9.19982 
H  -0.34023  -1.87461  10.10132 
H  0.79692  -0.55402  9.60004 
H  -0.50498  1.09332  10.98242 
H  -1.70713  -0.19295  11.39588 
H  -0.02725  -1.50846  12.5566 
H  1.25299  -0.27201  12.23014 
H  0.09033  1.41049  13.5408 
H  -1.39339  0.39865  13.72005 
H  -0.16143  -1.28543  15.0613 
H  1.3715  -0.37303  14.8079 
H  0.02366  1.647  16.00265 
H  -1.07795  0.3158  16.51764 
H  1.11999  -0.84722  17.4212 
H  1.94478  0.71893  17.06611 
H  0.36114  1.89109  18.62559 
H  -0.49147  0.32587  18.92974 
H  1.51195  -0.68384  19.89273 
H  2.49964  0.79391  19.54917 
H  1.11796  2.14781  21.05402 
H  0.00389  0.75615  21.35407 
H  1.83994  -0.55584  22.37463 
H  3.00783  0.79561  22.09201 
H  1.64056  2.3153  23.49836 
H  0.39669  1.02146  23.737 
H  2.02111  -0.37297  24.96812 
H  3.3098  0.88426  24.73084 
H  1.83521  1.26229  25.70403 
