102

Pd  0.0  0.0  0.0 
O  0.10701  -1.94698  0.0 
N  2.05875  -0.0163  0.0 
N  0.23424  1.96328  0.0 
H  -0.0604  2.19456  0.97636 
C  1.03803  -2.72811  -0.5779 
C  0.61489  -3.96603  -1.07336 
H  -0.41361  -4.27787  -0.94144 
C  1.50306  -4.80947  -1.73516 
H  1.16674  -5.76489  -2.11678 
C  2.82215  -4.41652  -1.92078 
H  3.50821  -5.0526  -2.46474 
C  3.26521  -3.19818  -1.41307 
H  4.29519  -2.94343  -1.60963 
C  2.38935  -2.32022  -0.72391 
C  2.90213  -0.99062  -0.23616 
C  4.42158  -0.79405  -0.21005 
H  4.81681  0.14834  0.19135 
H  4.81563  -0.85262  -1.2477 
H  4.88357  -1.59001  0.40436 
C  2.46622  1.33301  0.45366 
H  3.48801  1.64086  0.18713 
H  2.35959  1.36025  1.55725 
C  1.58593  2.42959  -0.11881 
H  1.74953  3.39133  0.41558 
H  1.78077  2.70616  -1.165 
C  -0.65922  2.76745  -0.85672 
H  -0.53588  3.85571  -0.67518 
H  -1.71677  2.49287  -0.66817 
H  -0.45658  2.57619  -1.93131 
O  -1.95152  0.0  -0.04847 
O  2.99636  0.77529  -4.01268 
C  -0.04847  0.0  -1.95152 
C  0.82734  0.37224  -2.97754 
C  0.32257  0.55429  -4.36615 
H  0.99112  0.83417  -5.17874 
C  -0.95708  0.38169  -4.66016 
H  -1.29205  0.52731  -5.68016 
C  -1.89906  0.01467  -3.59601 
H  -2.94747  -0.07888  -3.85805 
C  -1.47336  -0.15541  -2.32437 
C  -2.44183  -0.44385  -1.26232 
H  -3.37989  0.12019  -1.48066 
H  -2.66746  -1.53251  -1.26236 
C  -2.79103  -0.14063  1.0126 
C  -3.17068  -1.41698  1.4656 
H  -2.77402  -2.30719  0.99406 
C  -4.07054  -1.55048  2.52695 
H  -4.35322  -2.54171  2.85885 
C  -4.62275  -0.4115  3.13196 
C  -4.25734  0.86198  2.667 
H  -4.68155  1.75  3.11901 
C  -3.33555  0.99484  1.62294 
H  -3.06762  1.98211  1.27242 
C  -5.59926  -0.54447  4.26326 
H  -5.29358  0.11677  5.10123 
H  -5.63685  -1.58774  4.64332 
H  -6.6148  -0.25278  3.92124 
C  2.33379  0.55854  -2.82347 
H  2.70655  1.31991  -2.1583 
H  2.70519  -0.33532  -2.4032 
C  3.75424  -0.17688  -4.59977 
C  3.5435  -1.54781  -4.33673 
H  2.75833  -1.90535  -3.69116 
C  4.34128  -2.50715  -4.91609 
H  4.15848  -3.54438  -4.67542 
C  5.33898  -2.12781  -5.81014 
C  5.5459  -0.76483  -6.10082 
H  6.32406  -0.46258  -6.78767 
C  4.76411  0.20942  -5.48109 
H  4.94098  1.25796  -5.68395 
C  6.14344  -3.19334  -6.46054 
H  6.84672  -3.62552  -5.71472 
H  6.70708  -2.78881  -7.32407 
H  5.46024  -3.9899  -6.82458 
O  0.24588  -1.36558  1.3173 
N  0.46363  0.23205  7.49097 
N  0.0  0.0  1.91 
C  -1.25119  1.60382  8.56615 
H  -1.43093  2.55917  9.09535 
H  -1.57632  0.76878  9.22152 
H  -1.85937  1.57993  7.63663 
C  0.23583  1.45865  8.25022 
H  0.63027  2.34052  7.70908 
H  0.8112  1.45124  9.19744 
C  -0.40804  -1.96219  8.21626 
H  -0.14921  -2.866  8.81205 
H  -0.66954  -2.29539  7.18848 
H  -1.29856  -1.49078  8.65831 
C  0.77456  -0.97383  8.23868 
H  0.95993  -0.75517  9.30786 
H  1.709  -1.44679  7.85226 
C  0.34823  0.22451  6.04856 
C  -0.05662  1.32731  5.35642 
H  -0.33451  2.25122  5.84199 
C  -0.15831  1.36727  3.86791 
H  -0.52152  2.2647  3.32807 
C  0.15333  0.09813  3.17541 
C  0.59726  -1.07713  3.95981 
H  0.85485  -2.01732  3.48233 
C  0.69875  -1.01556  5.28158 
H  1.04186  -1.91361  5.78053 
