56

Fe  0.0  0.0  0.0 
S  -1.7874  -0.07519  0.45019 
S  0.82509  -2.02787  -1.02695 
O  1.13294  -0.20755  1.34278 
N  -0.17064  2.31061  -0.76602 
N  2.15127  0.80477  -1.50488 
C  -2.06837  1.66456  0.86034 
C  -1.61272  2.48978  -0.35835 
C  -0.00535  3.04046  -2.04364 
C  1.37322  2.90409  -2.78145 
C  2.11528  1.53669  -2.80009 
C  2.86842  1.63587  -0.47695 
C  2.19682  2.93044  0.03856 
C  0.68707  2.88864  0.30825 
C  3.02019  -0.42403  -1.68904 
C  2.27999  -1.70134  -2.09829 
C  1.62668  -2.49564  0.54485 
C  2.0196  -1.31933  1.45173 
C  0.2099  -0.15843  2.43545 
C  -1.17518  -0.70237  2.05338 
H  -1.52443  1.98655  1.76376 
H  -3.14753  1.83895  1.04178 
H  -2.28495  2.17034  -1.18781 
H  -1.83253  3.56447  -0.1628 
H  -0.24421  4.12012  -1.93642 
H  -0.81445  2.68401  -2.66591 
H  1.28577  3.29119  -3.81431 
H  2.07034  3.65727  -2.43393 
H  1.71061  0.86132  -3.54946 
H  3.14002  1.73508  -3.18902 
H  3.88939  1.90876  -0.83486 
H  3.01789  1.0375  0.4323 
H  2.43932  3.80454  -0.55977 
H  2.71746  3.23357  0.97164 
H  0.56867  2.29926  1.21883 
H  0.37426  3.93331  0.54099 
H  3.55604  -0.70109  -0.77305 
H  3.83933  -0.24504  -2.42191 
H  1.94851  -1.50992  -3.12463 
H  2.95596  -2.57685  -2.1453 
H  2.50039  -3.15827  0.37064 
H  0.85982  -3.09629  1.07306 
H  2.18687  -1.6984  2.48327 
H  3.02403  -0.97042  1.19004 
H  0.10592  0.89212  2.74992 
H  0.55323  -0.67045  3.36036 
H  -1.09226  -1.80374  1.93806 
H  -1.90876  -0.4968  2.85884 
C  -0.88968  -0.0744  -2.9772 
C  -0.33759  -1.11263  -4.11415 
C  -0.16126  -0.17586  -5.09881 
C  -0.55199  0.84495  -4.32561 
O  0.0  0.0  -1.79 
O  -0.0637  -2.30658  -4.13588 
O  0.19324  -0.21964  -6.27177 
O  -0.60387  2.01815  -4.68527 
