126

Cr  0.0  0.0  0.0 
N  1.86095  -0.01  0.0 
N  0.23632  -2.07522  0.0 
N  0.30273  2.08522  0.0 
N  -2.03159  -2.90689  0.12768 
N  -1.99774  2.91307  0.13177 
C  2.52071  1.23697  0.0004 
C  1.73126  2.32679  -0.07165 
C  2.53694  -1.24008  0.11012 
C  -3.36031  4.69903  -0.89992 
C  -0.73758  -3.06862  -0.50125 
C  -0.12178  4.45069  -0.07976 
H  -0.79492  5.30697  -0.04984 
C  1.63518  -2.40188  0.03988 
C  -3.34387  -4.56639  1.30311 
C  -0.60989  3.17984  -0.02729 
C  -3.06597  -3.88391  0.12401 
C  -3.88241  -4.08519  -0.99367 
C  -2.4132  -4.41208  2.46642 
H  -1.4202  -4.83467  2.17454 
H  -2.77154  -4.94033  3.35972 
H  -2.29676  -3.33787  2.70361 
C  -2.96006  3.92239  0.2177 
C  -4.3555  5.66547  -0.72538 
H  -4.68071  6.25881  -1.56675 
C  -3.55813  4.12434  1.48558 
C  2.05998  -3.66857  -0.04942 
H  3.11506  -3.92107  -0.04592 
C  1.32656  4.72544  -0.13667 
H  1.67282  5.75519  -0.16313 
C  4.00233  1.21783  0.10921 
H  4.60354  2.11446  0.13645 
C  -4.94158  5.86896  0.53265 
C  2.20983  3.71805  -0.12693 
H  3.27682  3.95216  -0.15493 
C  -3.07431  3.35683  2.67498 
H  -3.268  2.26903  2.55355 
H  -3.52974  3.69215  3.62569 
H  -1.98294  3.53225  2.74801 
C  3.87894  -1.25729  0.20837 
H  4.43762  -2.17815  0.26742 
C  1.08902  -4.7595  -0.19359 
H  1.44551  -5.78595  -0.17891 
C  4.63543  0.02792  0.20522 
H  5.71704  0.00113  0.28925 
C  -4.47909  -5.38462  1.38269 
H  -4.70742  -5.88976  2.30567 
C  -4.53678  5.10508  1.63396 
H  -4.96066  5.2817  2.61462 
C  -0.21068  -4.49481  -0.38912 
H  -0.88196  -5.34088  -0.51523 
C  -2.7236  4.51813  -2.24294 
H  -1.72757  4.98486  -2.29518 
H  -3.37348  4.89668  -3.06407 
H  -2.49584  3.46519  -2.37022 
C  -6.55298  -6.36082  0.35086 
H  -6.32189  -7.33474  0.81988 
H  -6.98379  -6.53521  -0.65916 
H  -7.29479  -5.79705  0.95584 
C  -5.31055  -5.54732  0.26419 
C  -5.97548  6.92299  0.70459 
H  -5.458  7.90201  0.77176 
H  -6.56352  6.74983  1.63003 
H  -6.664  6.91916  -0.16545 
C  -4.99347  -4.91867  -0.93135 
H  -5.64933  -5.01674  -1.7931 
C  -3.63677  -3.33877  -2.20827 
H  -3.81448  -2.29175  -1.91664 
H  -4.34293  -3.63643  -3.01587 
H  -2.59289  -3.47107  -2.55903 
H  -2.17013  2.06914  0.67591 
H  -2.15231  -2.15964  0.81629 
S  0.5308  0.0  -1.90399 
S  -1.8908  0.0  -0.57602 
C  -1.2016  0.51216  -2.18611 
N  -1.86339  -0.1641  -3.33283 
C  -1.20513  -0.10143  -4.66207 
C  -0.42821  -1.41074  -4.87368 
C  0.10792  -1.47625  -6.29564 
C  0.98538  -0.24764  -6.58517 
C  0.20213  1.06284  -6.37177 
C  -0.34446  1.14794  -4.93585 
C  -3.34774  -0.05269  -3.38287 
C  -3.95331  -1.13866  -4.29333 
C  -5.45536  -1.20332  -4.03853 
C  -6.03667  0.11285  -4.53643 
C  -5.44155  1.30294  -3.78204 
C  -3.90575  1.28995  -3.87563 
H  -1.9596  -0.06668  -5.46697 
H  -1.10155  -2.27992  -4.70119 
H  0.4125  -1.48822  -4.15113 
H  0.68889  -2.41615  -6.41813 
H  -0.75262  -1.50371  -7.00403 
H  1.86772  -0.26069  -5.90602 
H  1.34317  -0.30229  -7.63235 
H  -0.65103  1.09757  -7.08646 
H  0.85976  1.93596  -6.57466 
H  0.50869  1.2182  -4.23933 
H  -0.96447  2.06329  -4.81967 
H  -3.73647  -0.19484  -2.35907 
H  -3.41819  -2.06885  -4.14223 
H  -3.79455  -0.97047  -5.37044 
H  -5.88062  -2.06576  -4.5888 
H  -5.68381  -1.34221  -2.9555 
H  -5.80417  0.21257  -5.62297 
H  -7.15025  0.1021  -4.42386 
H  -5.73852  1.24181  -2.71099 
H  -5.82801  2.25953  -4.19261 
H  -3.58137  1.49439  -4.91783 
H  -3.55932  2.07109  -3.23175 
P  0.0  0.0  2.33 
O  0.85875  -1.13014  3.30436 
O  1.26816  1.12377  2.60997 
O  -1.4375  -0.15775  3.26399 
C  0.38783  -2.45036  3.07445 
C  0.75522  2.38996  2.9819 
C  -1.1594  0.04406  4.64679 
H  -0.19959  -2.59117  2.16471 
H  1.24126  -3.15957  2.99753 
H  -0.28388  -2.76535  3.89246 
H  1.39631  2.85085  3.75702 
H  -0.28029  2.38913  3.34462 
H  0.805  3.09467  2.15115 
H  -2.08957  -0.10944  5.22293 
H  -0.45123  -0.69108  5.08524 
H  -0.81046  1.06491  4.87765 
