30

Fe  0.0  0.0  0.0 
N  1.2725283464426242  -1.3702450903031909  1.6780662638871786e-16 
C  0.8876692946985868  -2.6566368405629754  -0.3626755508085039 
C  -0.30356158202675454  -3.337241216816313  -0.14086371306980874 
H  -1.0096199159844899  -2.9418379682776754  0.31790568444265854 
C  -0.39367532732189625  -4.625841017315731  -0.6310407495186359 
H  -1.1842227503217977  -5.10152612621532  -0.5145501526473919 
C  0.6779140861472165  -5.232226755079002  -1.3000687952523269 
H  0.5867418840945946  -6.107415462914218  -1.5996307007920716 
C  1.8605455334045289  -4.568684830036364  -1.527059684207878 
H  2.57315189648663  -4.974919564201211  -1.9652688717575177 
C  1.9353438072995701  -3.2548694712076305  -1.0656514147457297 
N  2.932436118041915  -2.3039009844592666  -1.1317153312967048 
H  3.5456842517984035  -2.320505196480173  -1.5529286817348833 
C  2.4951955440030016  -1.197253950486334  -0.4900382531545466 
C  3.302237536380313  0.017124398157711346  -0.3247458187110993 
C  4.694731364615672  -0.056852166850503136  -0.3633206311674817 
H  5.108284761028106  -0.8742750628903383  -0.5270175992078098 
C  5.467463378843291  1.0715125950023499  -0.1606702218501085 
H  6.395984439567877  1.0137668015235404  -0.17843150351663806 
C  4.849340040861076  2.2853471102801786  0.06794421024456415 
H  5.3662578861832735  3.046292650153844  0.20489502818236768 
C  3.4807530950923478  2.3825938845565346  0.09602243604894427 
H  3.0815136311419726  3.20866605077721  0.2486035837052198 
C  2.6864730746367314  1.2628352035307202  -0.10005539383593819 
N  1.2725283464426242  1.3702450903031913  -1.678066263887179e-16 
H  1.0743544964356082  2.199374238832828  0.08280404719527347 
H  0.8851358274662134  0.9999719336318283  -0.6906627365724506 
Cl  -1.5202795795510768  1.5202795795510768  0.0 
Cl  -1.5202795795510768  -1.5202795795510768  0.0 
