54

Fe  0.0  0.0  0.0 
C  2.68426  -1.44973  -0.10147 
C  3.44111  -0.24021  -0.5173 
H  4.48298  -0.41732  -0.75868 
C  3.02629  1.03055  -0.5134 
C  0.7823  -2.64868  0.65556 
C  1.0097  -3.96654  0.19771 
H  1.67401  -4.1508  -0.63489 
C  0.34365  -5.05381  0.7893 
H  0.4881  -6.05243  0.39923 
C  -0.5566  -4.84422  1.84054 
H  -1.13393  -5.66952  2.24161 
C  -0.7392  -3.55808  2.35022 
H  -1.45626  -3.39136  3.14814 
C  -0.05649  -2.4725  1.78053 
H  -0.24663  -1.47655  2.17112 
C  3.59522  -2.49763  0.45517 
C  3.56981  -2.8485  1.82302 
H  2.8684  -2.38223  2.50873 
C  4.48485  -3.78356  2.32321 
H  4.48034  -4.04157  3.37478 
C  5.41427  -4.37687  1.46501 
H  6.12445  -5.09751  1.84677 
C  5.43651  -4.03587  0.10996 
H  6.14921  -4.49191  -0.55902 
C  4.5396  -3.09299  -0.38706 
H  4.56397  -2.82607  -1.43428 
C  3.96111  2.14064  -0.80984 
C  5.3184  2.06776  -0.42881 
H  5.70302  1.19838  0.10771 
C  6.1829  3.10969  -0.70242 
H  7.22435  3.04251  -0.38904 
C  5.73064  4.23518  -1.36094 
H  6.41877  5.0532  -1.5895 
C  4.38992  4.34092  -1.74319 
H  4.03989  5.21676  -2.27398 
C  3.51107  3.30034  -1.4616 
H  2.47347  3.39525  -1.76499 
S  1.37878  1.49849  0.0 
N  1.37878  -1.49849  0.0 
C  -1.35057  1.35057  0.0 
H  -0.86958  1.98584  0.77301 
H  -1.09417  1.63258  -1.04649 
C  -2.69083  2.07101  0.11631 
H  -3.45157  1.65588  -0.56576 
H  -2.51522  3.13606  -0.20154 
H  -3.05371  2.11266  1.16411 
P  -2.70643  -2.24785  -0.25854 
F  -2.46611  -2.22828  -1.95567 
F  -4.08484  -3.25287  -0.45015 
F  -3.69111  -0.85573  -0.35875 
F  -1.27279  -1.27279  0.0 
F  -2.96375  -2.26536  1.43904 
F  -1.77026  -3.66297  -0.21997 
