76

Co  0.0  0.0  0.0 
C  1.3281597767211597  -1.3021488422987595  1.5946724117346073e-16 
C  1.1409758302893813  -2.669240565743665  0.009002215653036936 
H  0.2619004632478046  -3.025167204039338  0.05254285428266892 
C  2.2574495663833356  -3.5519984254141104  -0.04640345014478126 
C  3.5243422934427984  -2.9759102466804768  -0.059855529806857766 
H  4.284473518267138  -3.54658091493386  -0.08730820622111574 
C  3.720466389974747  -1.600157101719358  -0.03438176115915489 
H  4.602783620574877  -1.2453966396323266  -0.030415764949872054 
C  2.6235559976722778  -0.740729927461472  -0.015867350393882963 
C  2.611904999842104  0.7188442189508457  -0.01740857533364687 
C  3.705341165027592  1.5872133356516893  -0.08092306048994795 
H  4.584867902913459  1.2296285420592779  -0.11310135651887683 
C  3.529741759579572  2.946752746580125  -0.09914005636374118 
H  4.2985574245435085  3.503053878577599  -0.1422679341741142 
C  2.270674989443171  3.5468545357277548  -0.05804880425176139 
C  1.1738517940594875  2.672836498749092  -0.0038942189951050813 
H  0.2969867009551972  3.0359699130254842  0.031361162596813215 
C  1.3281597767211597  1.3021488422987595  -1.5946724117346073e-16 
C  2.0351575338444317  -5.059913489512056  -0.010658216389577533 
C  0.8550153166891954  -5.459337662928221  -0.9087636929227014 
H  1.023070484905844  -5.152677723581301  -1.8239845362361806 
H  0.03294586783634079  -5.048000354472427  -0.5716615423286704 
H  0.756809846353192  -6.434491511514654  -0.9042506913541366 
C  1.6709727404390529  -5.500698694978075  1.417664257316767 
H  0.8957737108984525  -4.991579481056527  1.729639674000893 
H  2.4321399043968484  -5.337785475606392  2.0128052418459905 
H  1.4550595500837917  -6.45856721544467  1.4192772451511602 
C  3.2621427179926554  -5.830582619185754  -0.48408607831658174 
H  3.0560920374565663  -6.789019308187285  -0.5116331330847408 
H  4.006804691368552  -5.675016908554402  0.1346907433919399 
H  3.5144409307775604  -5.525120722604242  -1.3802881378781413 
C  2.063423593078221  5.058702134136418  -0.025183048658126712 
C  1.0763153100914058  5.479859994271561  -1.124120187217584 
H  1.4363787014251284  5.229487664005188  -2.001453527777641 
H  0.9464547079822525  6.452550203605864  -1.0902979950201697 
H  0.2168680343341749  5.0313685192347855  -0.9823391341363326 
C  1.4776245322046797  5.457524145207906  1.33994537158834 
H  0.5787996424315149  5.078808936945366  1.4332283204853862 
H  1.4300884377416303  6.4356924571740155  1.4004504390502863 
H  2.0521973113565846  5.113469805606373  2.055995783821326 
C  3.3528504096372203  5.8188179387572445  -0.24408187986607255 
H  3.959905965942515  5.6574142971973655  0.5086730510710127 
H  3.1601943715574876  6.775493922741405  -0.3101087127400138 
H  3.7755024887013606  5.511548533753079  -1.0750624529309112 
N  -1.2869343417595165  1.2869343417595165  0.0 
S  -1.5073445566490533  2.2416883725415113  -1.2850162947908021 
S  -1.8730880779361152  1.887465464367125  1.3822287141952527 
O  -1.869254535456284  1.4238695349891024  -2.404475278489703 
O  -0.42590372313832825  3.1618769286259063  -1.4929965940187488 
O  -2.486461137235084  0.8372037449598986  2.146050061680383 
O  -0.9238550789725009  2.7044239939595096  2.0934958191599007 
C  -2.908216669546148  3.1444378424709765  -0.6791951843553049 
C  -3.0997855997273573  2.9468876159190582  0.6759684046547133 
C  -4.173941203038724  3.5216006368947435  1.355448598181937 
H  -4.314046960819478  3.3696896588324012  2.282214497091054 
C  -5.033301359152854  4.3310655544057255  0.6086397877073697 
H  -5.774886793679052  4.740625089378034  1.038671752347042 
C  -4.832182221560155  4.549948173530551  -0.7433532231987611 
H  -5.429669727119294  5.112334681380381  -1.2214143557845323 
C  -3.758707742030124  3.954613393595605  -1.413795212932054 
H  -3.6179521011468303  4.100866801356853  -2.342471491447746 
N  -1.2869343417595165  -1.2869343417595165  0.0 
C  -2.3489241293842458  -2.300036621943299  -0.05635930151450552 
C  -3.6639882064716183  -1.906442332439231  -0.08734411108510648 
H  -3.8840700071541727  -0.9832265612283468  -0.09500510291501343 
C  -4.678796794275287  -2.8710111492502595  -0.10705471116981358 
H  -5.589446987496353  -2.6009201492805767  -0.1413798815526609 
C  -4.348716106085367  -4.226995268772302  -0.0777278141621015 
H  -5.027634689036398  -4.89235764685461  -0.08358303033394465 
C  -2.9952098556390325  -4.587998715628747  -0.03949757272325405 
H  -2.7593313352396915  -5.508599616049272  -0.017132292507334168 
C  -2.013615149093493  -3.6477063331121036  -0.03424805246411222 
H  -1.1017356113713226  -3.911647934280345  -0.01465392435526669 
H  -1.201633465658688  -1.135979910106492  1.0919358498102107 
H  -0.3720013479197153  -1.4121814458797979  -0.3379500550270998 
