74

Pd  0.0  0.0  0.0 
C  -0.17058  3.41896  -0.03808 
H  -1.23319  3.63484  -0.00566 
C  0.85583  4.32908  -0.12293 
H  0.71378  5.40577  -0.1696 
C  2.05544  3.61422  -0.14203 
H  3.04074  4.04859  -0.20678 
C  1.74799  2.316  -0.07199 
C  2.60336  1.11984  -0.06574 
H  3.68517  1.1536  -0.13483 
C  1.55967  -2.33896  -0.0005 
N  0.36747  2.12987  0.0 
N  1.93767  0.0192  0.0 
N  2.45692  -1.23337  -0.00265 
N  2.15705  -3.61931  -0.01528 
H  3.18749  -3.683  -0.02699 
H  1.60181  -4.49706  -0.01529 
S  0.09486  -2.14907  0.0 
N  -1.93807  0.0  -0.06193 
N  -0.06193  0.0  -1.93807 
C  -2.87356  -0.13492  0.94257 
C  -4.23458  -0.27801  0.67487 
C  -4.68142  -0.31926  -0.63293 
O  -6.44546  -0.73287  -2.23906 
C  -3.74486  -0.19003  -1.65931 
C  -2.36745  -0.02697  -1.35165 
C  -1.34679  0.05924  -2.37207 
C  -1.63777  0.15526  -3.74187 
C  -0.60752  0.17304  -4.68034 
C  0.7111  0.10119  -4.21913 
C  0.96327  0.01992  -2.84548 
C  -6.15376  -0.52921  -0.88107 
C  -0.8901  0.25417  -6.1629 
O  -2.26649  0.31421  -6.42413 
H  -2.61656  -0.15541  1.98278 
H  -4.93129  -0.3806  1.49741 
H  -4.09778  -0.23346  -2.67325 
H  -2.65422  0.20727  -4.09241 
H  1.53753  0.10901  -4.92063 
H  1.99005  -0.03539  -2.51835 
H  -6.49791  -1.40762  -0.28379 
H  -6.72399  0.35166  -0.51609 
H  -0.46881  -0.65085  -6.65084 
H  -0.4017  1.17028  -6.56283 
H  -6.45928  -1.71794  -2.3806 
H  -2.37127  0.47675  -7.39298 
N  0.0  0.0  1.91 
H  0.78137  0.68849  2.00504 
H  -0.76606  0.70031  1.89649 
C  -0.00667  -0.64431  3.22075 
H  1.05046  -0.8337  3.52274 
H  -0.52756  -1.62173  3.16137 
C  -1.18268  0.58782  6.69384 
H  -2.26153  0.66605  6.4428 
H  -0.73766  1.60754  6.63573 
C  -0.6919  0.24937  4.26697 
H  -0.2481  1.2696  4.23409 
H  -1.77629  0.33489  4.03443 
C  -1.056  0.06304  8.13055 
H  -1.6629  0.72559  8.78462 
H  -1.46268  -0.96987  8.19848 
C  -0.51002  -0.32465  5.66153 
H  0.58071  -0.39568  5.85302 
H  -0.95687  -1.34144  5.70168 
C  0.56524  -0.3122  10.06451 
H  0.29052  -1.38431  10.18141 
H  -0.08437  0.29605  10.73179 
C  0.39651  0.12072  8.60908 
H  0.74467  1.17105  8.5109 
H  1.03517  -0.53688  7.98497 
C  2.02333  -0.10025  10.46443 
H  2.19445  -0.41455  11.51325 
H  2.28066  0.97783  10.36809 
H  2.69003  -0.68568  9.79487 
