25

Fe  0.0  0.0  0.0 
O  4.90478  -1.07906  0.19128 
O  3.55302  -2.54163  1.16307 
N  1.30687  -1.33753  0.0 
H  1.24346  -1.7609  0.95456 
H  1.16119  -2.08039  -0.72227 
N  1.30687  1.33753  0.0 
H  1.43228  1.71238  -0.96874 
H  1.19005  2.14471  0.65439 
C  3.7616  -1.46594  0.37668 
C  2.60119  -0.6838  -0.20765 
H  2.75096  -0.55513  -1.30182 
C  2.52715  0.68242  0.44456 
H  2.46228  0.53679  1.54808 
H  3.42349  1.30529  0.22347 
C  -1.35057  1.35057  0.0 
H  -0.82593  1.98014  0.73318 
H  -1.09495  1.59501  -1.05504 
C  -2.65532  2.11995  0.13244 
H  -3.43622  1.69385  -0.52148 
H  -2.45188  3.16707  -0.22617 
H  -2.99162  2.19555  1.18614 
O  -3.15982  -2.93817  0.25746 
N  -1.32229  -1.32229  0.0 
C  -2.27447  -2.1334  0.16904 
