41

Fe  0.0  0.0  0.0 
O  1.31321  -1.27514  0.0 
O  3.47524  1.55239  -0.69537 
N  1.31321  1.27514  0.0 
C  2.61129  0.7126  0.02636 
C  2.53694  -0.72951  -0.44655 
C  1.49263  2.71059  -0.05455 
C  2.61333  -0.93865  -1.96831 
C  3.71694  -1.43155  0.2355 
C  1.17613  3.33106  1.31743 
C  2.99296  2.84757  -0.40203 
C  0.6213  3.33645  -1.15185 
H  2.59914  -2.03257  -2.18491 
H  4.67713  -0.98777  -0.1139 
H  3.65798  -1.29007  1.33822 
H  1.74338  -0.48225  -2.48357 
H  3.72575  -2.5184  0.0204 
H  3.58592  3.25108  0.44899 
H  3.55398  -0.52701  -2.39097 
H  0.82907  2.86314  -2.13425 
H  -0.45119  3.23391  -0.9223 
H  3.15732  3.51332  -1.2771 
H  1.36869  4.42503  1.30523 
H  1.81185  2.87229  2.10762 
H  0.11355  3.15621  1.58912 
H  0.82853  4.42558  -1.22185 
C  -3.63964  1.39765  -0.02922 
C  -4.829  0.91392  0.55685 
H  -4.85966  -0.05021  1.04641 
C  -5.98906  1.69621  0.53677 
H  -6.89277  1.33016  1.00413 
C  -5.97374  2.94551  -0.08593 
H  -6.86889  3.55231  -0.11215 
C  -4.80293  3.41807  -0.68809 
H  -4.79099  4.38599  -1.17875 
C  -3.63966  2.6512  -0.65156 
H  -2.7425  3.03258  -1.11666 
N  -2.45211  0.62048  0.03309 
N  -2.45891  -0.70453  0.42864 
O  -1.2892  1.2418  0.0 
O  -1.2892  -1.2418  0.0 
