65

Pd  0.0  0.0  0.0 
P  1.5824299534260604  -1.4099700147520875  -4.073850314043991e-16 
N  1.5824299534260595  1.409970014752087  -2.836938290085046e-16 
C  1.7384070276494272  -0.4704474177180508  -1.5588249715664668 
H  2.4616592882763877  -0.8534314807478924  -2.1164890684591944 
H  0.8921173785200831  -0.5135407348554961  -2.0690919759814683 
C  2.0586459505389496  0.9557766395031806  -1.2004907129894116 
C  2.846738895696651  1.7403891124106392  -2.0121833809067535 
H  3.1520725664960145  1.4107561733146103  -2.8491953073087237 
C  3.186068352276004  3.000288550990081  -1.601402837836884 
H  3.7076541361732556  3.564835560268117  -2.1603275593795477 
C  2.7611364781316627  3.442845309978829  -0.3650599576415779 
H  3.008778663106103  4.309105817096604  -0.06508147169776443 
C  1.9732617913144155  2.630116604396046  0.4476326219937921 
C  1.6844415403606696  3.07478286569256  1.8456235335177662 
C  0.8408589846047688  4.165765141135113  2.0889054405609673 
C  0.6532656619659059  4.573510830039769  3.4131888197819777 
H  0.06164932884731078  5.2935437061846615  3.600972476306795 
C  1.3089658690591486  3.949043440103954  4.444807420488977 
H  1.158661040183001  4.2317721760551885  5.339298594444296 
C  2.1776096310361943  2.923368138594596  4.191190858229963 
H  2.651370667338311  2.524138183978168  4.911939894870931 
C  2.378854946506325  2.4546546354097774  2.897965307549201 
C  0.10972723057975498  4.879868795443701  0.992588757681661 
H  -0.5574224344964749  4.279389004283839  0.6008956318837827 
H  0.7469499825809771  5.156402981221088  0.30100803323335174 
H  -0.3379959293935191  5.670267490692515  1.3600141304752966 
C  3.3646596077988224  1.3605994116387732  2.6703938965296796 
H  4.049220509937213  1.3870050724758558  3.3721324249996605 
H  3.7890973679650886  1.4794273641817635  1.7950338989061183 
H  2.9053506576100006  0.49610826484348525  2.695979935477224 
C  1.0033413795710677  -3.0756976546501296  -0.42740271794912754 
C  1.7896758163867024  -4.188236948810803  -0.18670917331961198 
H  2.6487631178317015  -4.085357619121295  0.20612170889129988 
C  1.3266105758396973  -5.455723977826969  -0.515560574826324 
H  1.8634446782685885  -6.220205519081253  -0.34041452277018924 
C  0.08684690457890798  -5.603258523117689  -1.0976088008075318 
H  -0.2291917328319606  -6.4701246672284976  -1.3238209089227992 
C  -0.6968839803071838  -4.502018416055543  -1.3531124733319269 
H  -1.5437995689349158  -4.608790037738912  -1.7683084951607448 
C  -0.2530124328552923  -3.2383205279034426  -1.004956550155855 
H  -0.8050770355991237  -2.4809265664525895  -1.1594626392108915 
C  3.2059466001581924  -1.590664832609471  0.7508526956622201 
C  4.369762918784516  -1.1671745074588409  0.1272375410973681 
H  4.3482868447169984  -0.8531945147156336  -0.7690297194893716 
C  5.570413999220579  -1.2076043105068321  0.8300337235522988 
H  6.370301094081972  -0.9150100987976288  0.40957151032915196 
C  5.61269150789892  -1.6586778853670936  2.1075795044630175 
H  6.43616597504283  -1.6584467315151745  2.5789101193502795 
C  4.480809349775195  -2.1130536084654636  2.7220929236655937 
H  4.525484370419795  -2.458344586221188  3.6068888680566884 
C  3.265820386933747  -2.0715242465731154  2.052634499060854 
H  2.4754384316134903  -2.3719613555668713  2.4849504578729475 
Br  -1.654629867976521  1.654629867976521  0.0 
C  -1.352040782177733  -1.3199206589279684  -0.4819701001757076 
C  -1.6380700204479186  -1.599217458033982  -1.8139382277462257 
H  -1.1579680913617836  -1.159339363685303  -2.503515938957912 
C  -2.63068216563725  -2.52632649780156  -2.142289956238523 
H  -2.8368222554424674  -2.694399528648736  -3.0538898079700485 
C  -3.3101544432602585  -3.1961573187854975  -1.1619874135498987 
H  -3.9960123560788676  -3.811990145619169  -1.3868663427944008 
C  -2.9974710358883443  -2.9701089012107795  0.12423560353005347 
H  -3.438659168087169  -3.468581175155742  0.8017084178296768 
C  -2.0389854250767776  -2.015940632791841  0.4912562833419403 
H  -1.8619130127668426  -1.8492165108145995  1.4101568590026907 
