56

Ni  0.0  0.0  0.0 
P  1.1974813808573395  -1.62669552851786  1.992127472186709e-16 
N  1.1974813808573395  1.62669552851786  -1.992127472186709e-16 
C  2.7961734638971913  -1.0905849536061605  0.6764265555798491 
C  3.8830477709126026  -1.967737933365111  0.6936814345950408 
H  3.785264713077022  -2.8259911439533583  0.34945950020489247 
C  5.109644637970925  -1.5750422052456445  1.2188087437681903 
H  5.823859781801189  -2.170750592593905  1.2372338778637968 
C  5.2610114556482195  -0.294935400687512  1.7130546293658544 
H  6.0797005978885155  -0.028092984642084286  2.064649457793229 
C  4.194974440157408  0.5997784959727259  1.6877181985500438 
H  4.313754327601778  1.4654570082159217  2.0062448407310685 
C  2.9505763234951425  0.21070557857394215  1.1901239741118257 
C  1.8300250732304753  1.2263357693726509  1.291557997341269 
H  1.1406471810567447  0.8625229109582543  1.8694945906060294 
H  2.178367623207216  2.023559326126136  1.7201689846398114 
C  2.240864952094592  2.0226770466984005  -0.9802379560758118 
H  2.7916378103124337  2.7106449056988273  -0.599860388870641 
H  1.8202056458225089  2.353000709350615  -1.7773749869172704 
H  2.7829651983800336  1.2611331417190124  -1.1953721787509142 
C  0.34656943548600583  2.8099301266689465  0.2738439646269937 
H  0.8955343721386029  3.5342267939583127  0.5833607591301967 
H  -0.3015104061895577  2.588969191633062  0.9472944260581675 
H  -0.10576222610880714  3.0721329283134695  -0.5317061633778696 
C  0.4326979731271162  -2.6713563210315843  1.3288096243801018 
H  -0.4975153163195063  -2.8357442905759815  1.065481612945714 
C  0.39415034955655937  -1.924511469796929  2.658152375103721 
H  -0.07836273678053751  -2.4497988422768593  3.307087047897008 
H  -0.05411268997569141  -1.08329369055658  2.540789752096027 
H  1.2897795113211732  -1.7690358011384943  2.9640752102305754 
C  1.0977334006550905  -4.043788860410441  1.5072002771251176 
H  2.015148367940979  -3.9232584467204004  1.7669050656361476 
H  1.0608373452483308  -4.527446214357218  0.6795633790420044 
H  0.6355086125955465  -4.538382944487784  2.188135308753714 
C  1.5928634847551353  -2.754682550570988  -1.3958908481672592 
H  2.113435951572061  -3.509552314747953  -1.0522965584539983 
C  2.416328948237214  -2.0335968836860805  -2.4548489311268487 
H  2.712386717988988  -2.6654457834838743  -3.114160917059109 
H  3.1771651566784307  -1.6209410496766188  -2.0411683942595937 
H  1.8763682256943843  -1.3602835710233574  -2.8758014832062817 
C  0.2767593391928973  -3.2881785704381583  -1.9767724839760041 
H  -0.28322418310675723  -2.5503111306145403  -2.2318721429350687 
H  -0.17360340892056403  -3.817422675992695  -1.315099020818015 
H  0.4634450095798347  -3.8293455003073786  -2.748081497593846 
Br  -1.5839191898578664  1.5839191898578664  0.0 
C  -1.29374738  -1.23987949  -0.45980057 
C  -1.6015622  -1.49386547  -1.79197911 
H  -1.13094174  -1.04282176  -2.48087966 
C  -2.60218399  -2.41188997  -2.12154241 
H  -2.82315865  -2.56261387  -3.0327005 
C  -3.26832081  -3.09759503  -1.14306437 
H  -3.95960209  -3.70719172  -1.36832808 
C  -2.93474499  -2.89608732  0.14198827 
H  -3.36683509  -3.40560694  0.81710224 
C  -1.96755092  -1.95161757  0.51124219 
H  -1.77552984  -1.8022912  1.43013249 
