58

Ni  0.0  0.0  0.0 
P  1.2753892239234257  1.566359577970525  1.127431318233884e-16 
N  1.2753892239234257  -1.566359577970525  5.551115123125783e-17 
C  1.4926420454301421  -2.5204897094032974  -0.8119605679092239 
H  2.183379367305586  -3.1303689851681478  -0.583585369691709 
C  0.7697387603875849  -2.771441984684368  -2.083530532954783 
H  0.046233818554626716  -2.090617128120005  -2.1933732560975763 
C  0.14380174730145967  -4.179909932292191  -2.0301185847574326 
H  -0.33592225212366467  -4.3551467737303735  -2.86699990476545 
H  0.8510415752989597  -4.8476953467723405  -1.9134064349972082 
H  -0.48200222130358816  -4.23059898614461  -1.278298311887811 
C  1.7394071944006604  -2.6735337315879093  -3.2598851232269004 
H  1.2559807597315706  -2.8408416848099582  -4.096697850814021 
H  2.134181304999411  -1.7770274441750047  -3.285435431054813 
H  2.449873087067389  -3.340587347306063  -3.155390869247943 
C  2.1611665364931962  -1.4762380490538387  1.1716981362801835 
H  2.6786848999115045  -2.316265679685634  1.2557221405883172 
H  1.6130630013983613  -1.3720520452171954  1.9894703548234134 
C  3.1300557114803564  -0.2907545840081496  1.0523489817126288 
H  3.8626593651700327  -0.4122086055978076  1.706254286202682 
H  3.5306022866883544  -0.2975935053839671  0.1471877528458722 
C  2.4818850377784374  1.065995120777702  1.289012257943476 
H  3.1941175759093667  1.75149822625953  1.341020276578687 
H  2.0206838259230473  1.047060020934007  2.1654453667299025 
C  0.7901664948020956  3.2460865493527695  0.5338326935989359 
C  0.700102141502966  3.575651904115591  1.883336109380054 
H  0.9081552095428754  2.9198544043289045  2.538482543509641 
C  0.3126577875360206  4.842046720413212  2.2867251794274037 
H  0.2596655273672326  5.05232581573228  3.211465063088746 
C  0.0013397802925441127  5.8064123113314565  1.3344081285357952 
H  -0.2632919986019433  6.678104513558152  1.6043788420888123 
C  0.07758458935075185  5.486313639831243  -0.008479993980567924 
H  -0.13914756501370507  6.143533140690563  -0.6601077105141542 
C  0.46445338852440576  4.22866547417035  -0.41539962196100294 
H  0.5118961386486564  4.024721740884091  -1.3426044855774157 
C  2.3516134307833747  1.8424883999108843  -1.4417646618857676 
C  3.39665840629721  2.7629828223142763  -1.3715824171400097 
H  3.506001376825329  3.3010709068472277  -0.5970800103782479 
C  4.282914984931564  2.891295786225416  -2.4447557303190663 
H  4.988260683504597  3.526220597863217  -2.4043880567273264 
C  4.133390435891615  2.0954981401861517  -3.564914212763734 
H  4.749921961063174  2.1722371161470484  -4.2833130351724105 
C  3.0869924941112927  1.184661512974078  -3.646247084143215 
H  2.9821668315952046  0.6465043798002399  -4.421441705185015 
C  2.196352841604105  1.0658997212269852  -2.5868977998167746 
H  1.4757760355665435  0.44963317006208703  -2.64434390078136 
Br  -1.5839191898578664  1.5839191898578664  0.0 
C  -1.2937473829822488  -1.2398794889499034  -0.459800567 
C  -1.601562203225019  -1.4938654694550033  -1.7919791134 
H  -1.1309417375171225  -1.0428217585005106  -2.480879663 
C  -2.60218398542082  -2.411889969420291  -2.121542410022 
H  -2.8231586547736818  -2.5626138747145775  -3.032700502 
C  -3.2683208079706407  -3.09759503004543  -1.14306436557 
H  -3.9596020908062854  -3.707191723557817  -1.368328076 
C  -2.9347449854640226  -2.896087320001541  0.14198826503 
H  -3.3668350933519986  -3.405606940434718  0.81710224434 
C  -1.9675509241539992  -1.9516175659140573  0.5112421903 
H  -1.7755298364628027  -1.8022912010877177  1.4301324877 
