108

Pd  0.0  0.0  0.0 
C  -0.46389  -3.07671  -0.0217 
H  -1.54091  -3.11641  -0.09559 
C  0.39492  -4.16776  0.13769 
H  0.12423  -5.21336  0.19656 
C  1.68075  -3.66739  0.28274 
H  2.59217  -4.2219  0.46944 
C  1.54262  -2.30593  0.22251 
C  2.50343  -1.21332  0.53006 
C  2.60692  1.29367  0.15553 
H  3.31494  1.42857  -0.69463 
H  3.16775  1.35243  1.10721 
C  1.58454  2.38366  0.06598 
C  1.8631  3.84724  0.07184 
H  2.88831  4.20443  0.0954 
C  0.83174  4.70101  0.04716 
H  1.02734  5.76759  0.05505 
C  -0.57106  4.20279  0.01142 
H  -1.38318  4.922  0.01048 
C  -0.84245  2.88274  -0.01867 
H  -1.87127  2.54285  -0.04053 
C  4.01192  -1.36828  0.28849 
H  4.36213  -0.9442  -0.67629 
H  4.33842  -2.42353  0.37551 
H  4.50806  -0.7981  1.10316 
N  0.27292  -1.95241  0.0 
N  1.90376  0.01269  0.0 
N  0.22332  1.93972  0.0 
C  3.06491  -0.77063  -6.46316 
C  1.66827  -0.83548  -6.19915 
H  0.95272  -1.07556  -6.97275 
C  1.16853  -0.57706  -4.91679 
H  0.10328  -0.63637  -4.75293 
C  2.06789  -0.22697  -3.90209 
C  3.43997  -0.18596  -4.17021 
H  4.16152  0.04972  -3.39355 
C  3.93079  -0.45302  -5.41167 
H  5.00287  -0.3944  -5.51735 
C  1.78377  0.1256  -2.49002 
H  2.5478  -0.48891  -1.98346 
C  5.0431  -0.8976  -7.98944 
H  5.37402  0.13825  -7.74802 
H  5.32566  -1.11184  -9.03563 
H  5.58737  -1.61449  -7.33474 
C  2.73002  -1.38816  -8.85246 
H  2.20608  -2.33124  -8.58805 
H  3.2899  -1.54688  -9.79275 
H  1.98774  -0.57855  -9.0167 
C  -1.82898  0.10408  -1.95978 
C  -3.11697  0.21688  -2.62403 
C  -3.22098  0.74476  -3.91202 
H  -2.3408  1.07948  -4.44672 
C  -4.47419  0.88265  -4.50105 
H  -4.52504  1.32342  -5.48565 
C  -5.63481  0.47241  -3.81135 
C  -5.51867  -0.07803  -2.53537 
H  -6.3973  -0.41096  -1.99027 
C  -4.27086  -0.19698  -1.93815 
H  -4.2044  -0.62159  -0.94149 
C  -7.1359  1.14462  -5.57745 
H  -6.75766  2.18822  -5.61011 
H  -8.22922  1.15053  -5.74553 
H  -6.64439  0.53368  -6.36267 
N  0.45234  0.0  -1.86096 
N  -0.69929  0.13133  -2.60113 
N  3.60837  -1.01816  -7.76123 
O  -1.81234  0.0  -0.61904 
O  -6.87084  0.59462  -4.34945 
Cl  5.69701  -4.99721  6.84681 
Cl  1.73157  -1.68868  8.59213 
S  0.0  0.0  2.23 
O  -0.10496  -1.46934  6.21277 
N  1.18184  -0.72369  4.47838 
H  2.0908  -0.8294  4.02429 
N  -0.82609  0.69514  4.68009 
C  0.41333  0.36491  3.94052 
C  0.91266  -1.55768  5.53967 
C  2.00646  -2.47211  5.93391 
C  2.67477  -3.1731  4.91507 
H  2.33354  -3.10625  3.89198 
C  3.78473  -3.96466  5.20297 
H  4.28169  -4.48733  4.39558 
C  4.26061  -4.05057  6.50893 
C  3.60623  -3.36526  7.542 
H  3.9967  -3.4178  8.54902 
C  2.46862  -2.58656  7.27111 
C  -0.72164  1.09749  6.04202 
C  0.48764  1.59229  6.55856 
H  1.35625  1.694  5.923 
C  0.57915  1.97802  7.8907 
H  1.5155  2.36944  8.26468 
C  -0.52712  1.85751  8.73324 
H  -0.44719  2.15295  9.76877 
C  -1.73437  1.35452  8.23797 
H  -2.58795  1.24959  8.89467 
C  -1.83801  0.98438  6.89633 
H  -2.77481  0.58348  6.52598 
C  -1.85574  1.37899  3.95307 
C  -2.99091  0.70724  3.45067 
H  -3.1193  -0.35146  3.62198 
C  -3.93851  1.40384  2.70357 
H  -4.80861  0.89519  2.28884 
C  -3.77691  2.77073  2.43843 
H  -4.49749  3.31424  1.84467 
C  -2.65064  3.44064  2.93661 
H  -2.51445  4.50085  2.73995 
C  -1.70474  2.75511  3.69363 
H  -0.83208  3.27604  4.06701 
