80

Pd  0.0  0.0  0.0 
P  1.5832911782107546  1.409002854858712  0.0 
N  1.5832911782107546  -1.409002854858712  0.0 
N  3.0061272869949436  0.42059202219247815  0.12103525687977726 
C  2.7767664422342753  -0.9251119225948675  0.13491026586900454 
H  3.607809139111424  -1.516530312647427  0.26371843282591534 
C  1.4036841340259854  -2.832940416859738  0.12863719991427286 
C  1.0303880236386203  -3.363007625328873  1.3671845298437564 
C  0.8455413145718297  -4.741865438356383  1.4530103744371659 
H  0.5921477435304985  -5.118380406491913  2.2875949578826344 
C  1.0184403270579834  -5.584231879210057  0.3660735037750055 
C  1.3574646519194198  -5.014377788970818  -0.8558080301675819 
H  1.464104073961912  -5.576903966449343  -1.6132452442770064 
C  1.5441450296830619  -3.64283963109123  -1.0019586649191567 
C  0.838513324620398  -2.4777276447392804  2.565184407074133 
H  1.6972393376283759  -2.078319369547083  2.816406966354635 
H  0.4942174665465999  -3.0102327084534606  3.312255367045133 
H  0.19797454584364194  -1.7688491165263942  2.347163387165677 
C  0.8631307459450518  -7.077384485498399  0.4974983429373887 
H  1.735905738562962  -7.483319500482704  0.6802952408063708 
H  0.5011305854312817  -7.441983789345455  -0.3370542026954564 
H  0.24908730895538445  -7.279188242687034  1.2342334656745115 
C  1.88846075598971  -3.054858100647082  -2.3383944959542813 
H  1.2970565487190433  -2.2943980765206975  -2.523638646545494 
H  1.7746687327161652  -3.7357171505006024  -3.034661707355107 
H  2.820374057685068  -2.7483120468115048  -2.3302874002282263 
C  4.340154545282418  0.9184758040321856  -0.19830665068484737 
C  5.111626744854108  1.5627693353543988  0.7767004368711496 
C  6.350309005526944  2.078719457451843  0.382095598327484 
H  6.884096819702015  2.528052996994945  1.0267669407027251 
C  6.824157739918131  1.9590938375187297  -0.9077358278563927 
C  6.033813992398779  1.299518871580715  -1.8400309447935983 
H  6.35310320224769  1.2025017580038182  -2.7292678143324487 
C  4.792923932938571  0.7804629076569687  -1.5121984011862502 
C  4.668070864101287  1.717415395331226  2.2016898883350193 
H  4.103829221274892  2.515865456039451  2.284260397934992 
H  5.453379261332153  1.8119688978600474  2.7799186115910204 
H  4.155384374543257  0.926738860391406  2.4721049591432624 
C  8.176052917912745  2.5098920224364036  -1.3012058231627133 
H  8.275496576885423  3.4160351083764446  -0.9448199697773813 
H  8.246907684930042  2.533391438981817  -2.2790360535263274 
H  8.88103641637904  1.9349228006165977  -0.937274468577574 
C  3.9904324658097394  0.07140001147129516  -2.5743993211812617 
H  4.113142003588356  -0.8960693661096978  -2.483665298999912 
H  4.294945284404995  0.3569467714459891  -3.4602626295867642 
H  3.0408174621206827  0.2919576802711663  -2.467479353437956 
C  1.9850384184290428  2.658392303524182  -1.216220037879835 
C  1.4636186369139321  2.5542380468497226  -2.5106642901600837 
H  0.8336492561553851  1.87412642273517  -2.7144598201673817 
C  1.8691867061235337  3.4410085283228  -3.4902160878847415 
H  1.5272845903259404  3.359647206303693  -4.373104171671401 
C  2.7670980946789623  4.447954238267631  -3.19004700965351 
H  3.0319583898207942  5.062401612887616  -3.8653714782461996 
C  3.285310385706449  4.568440523596714  -1.9037185965040226 
H  3.9004212652859738  5.262733843604284  -1.6996502216494629 
C  2.900179441712665  3.672860918737409  -0.9259870345001584 
H  3.2599071446999  3.7464082218125263  -0.049851694547514064 
C  1.3627309209477303  2.2072833914249688  1.5996393368055224 
C  1.4229060525106396  1.397299099296304  2.7364142309891712 
H  1.6130702374980803  0.47114742366265006  2.6490978724471717 
C  1.2055814919628043  1.939050120146112  3.98747151456611 
H  1.260851728873877  1.3912431144055897  4.761153868877866 
C  0.9095173396031448  3.286727503092515  4.107611720918082 
H  0.7667169489662451  3.6632402107642097  4.968656045790898 
C  0.8218568519717137  4.085167180571247  2.9887994845102424 
H  0.6120790119194198  5.007068850621626  3.0842258361187627 
C  1.0369460914872377  3.555236767424657  1.7239622672103405 
H  0.9628506030157558  4.1052048404685575  0.9526526100553423 
Br  -1.654629867976521  1.654629867976521  0.0 
C  -1.35204078  -1.31992066  -0.4819701 
C  -1.63807002  -1.59921746  -1.81393823 
H  -1.15796809  -1.15933936  -2.50351594 
C  -2.63068217  -2.5263265  -2.14228996 
H  -2.83682226  -2.69439953  -3.05388981 
C  -3.31015444  -3.19615732  -1.16198741 
H  -3.99601236  -3.81199015  -1.38686634 
C  -2.99747104  -2.9701089  0.1242356 
H  -3.43865917  -3.46858118  0.80170842 
C  -2.03898543  -2.01594063  0.49125628 
H  -1.86191301  -1.84921651  1.41015686 
