53

Fe  0.0  0.0  0.0 
N  1.18366448582358  1.4477010689365404  1.6044954616327957e-16 
C  0.6958821116810512  2.7760995631178704  0.27253866905939195 
C  -0.36416321177907407  3.253362065595366  -0.4809272332475861 
H  -0.7182883611713069  2.7400489887832538  -1.1981204246135069 
C  -0.9045073486208788  4.512287049562408  -0.1643120116863115 
H  -1.6310936723382998  4.85170912401108  -0.6729918811167879 
C  -0.39592246438408507  5.255762141274992  0.8714051618359047 
H  -0.7655117631197743  6.107350315417621  1.0714481370199582 
C  0.6486413838792596  4.767870341541187  1.6176577455190813 
H  0.9999775792119538  5.283624195027311  2.334005747863873 
C  1.1908589306412902  3.5246177919508566  1.3277916386343451 
H  1.905079685704676  3.185413908264613  1.855531809863411 
C  2.4531587833679884  1.2494734022188476  -0.1322198194293286 
C  3.4830995480583526  2.3256570760656037  -0.22170686527832723 
C  3.400863801503924  3.2761260192230375  -1.2293937065548546 
H  2.664039224117738  3.273854510918899  -1.8302466939067736 
C  4.402725947776048  4.231640783065931  -1.3538266440966311 
H  4.355215107719378  4.880977417658972  -2.045836033521735 
C  5.464601755141914  4.240980763736065  -0.47593549224909565 
H  6.151340704533932  4.890137571840347  -0.5720164678885837 
C  5.534630989211934  3.311970224987228  0.5380559452242166 
H  6.256843206588606  3.3375195291865887  1.154892460134628 
C  4.551734088887053  2.3368873537443675  0.6628029192979301 
H  4.6110146461608  1.6829281246505734  1.3489817532853794 
N  3.0102346401753484  -0.005460440120975241  -0.23705107007800222 
H  3.788503807020657  -0.0003055741337016915  -0.4662129152761178 
C  2.4592572283085614  -1.2600335484590033  -0.13362105776218772 
C  3.4769338173252713  -2.3431558577848204  -0.19613124259710726 
C  3.3343919543770797  -3.3973912712608483  -1.1000716390173115 
H  2.5816739201136674  -3.434234188037294  -1.6788052741017567 
C  4.30123427722891  -4.39190128502883  -1.146789786002389 
H  4.212146578064036  -5.111561816028737  -1.7608407545534157 
C  5.393473140470774  -4.338029390013038  -0.3030906426156153 
H  6.046111288610445  -5.0272288638608655  -0.3301967828926724 
C  5.540247301334623  -3.2924387895226044  0.5790395529160624 
H  6.296288916711447  -3.2596484428007697  1.1529213342790132 
C  4.5880104775841355  -2.285973814629454  0.6306268169152289 
H  4.6969105891883745  -1.558479677477466  1.2317862018557602 
N  1.18366448582358  -1.44770106893654  5.551115123125783e-17 
C  0.6898737840505086  -2.775457538310439  0.22730129977239777 
C  -0.17206078517801893  -3.3297859195069153  -0.7045208689749298 
H  -0.41698495479902653  -2.841762165736398  -1.481282909043329 
C  -0.6746218220854017  -4.60783535920178  -0.49230043198021434 
H  -1.2563486828263428  -4.997166659767884  -1.1343713220632703 
C  -0.34041762072438275  -5.309160478582835  0.6280783471466589 
H  -0.6847821279188684  -6.184419886197146  0.7613669271801873 
C  0.49550055030034035  -4.749653220917403  1.5676964291195479 
H  0.7189375046906782  -5.237741666910652  2.3518283671890954 
C  1.014235887400176  -3.474237401575391  1.3758413071757236 
H  1.5859349962585059  -3.086441148573793  2.027117512090763 
Cl  -1.5202795795510768  1.5202795795510768  0.0 
Cl  -1.5202795795510768  -1.5202795795510768  0.0 
