90

Pd  0.0  0.0  0.0 
O  -1.2732472701091095  -5.245101821296922  0.11200648340135677 
O  -0.9824852701938633  5.338583144084299  0.08110934811729598 
N  0.21533338241723465  -1.9395105355206086  -2.275957200481571e-15 
N  1.8544113861964286  -0.026385218786963427  -7.216449660063518e-16 
N  0.33025523138633694  1.9658957543075721  2.9976021664879227e-15 
C  -0.473825011395294  -6.381103823350756  0.1368458393226466 
C  0.8324434015055535  -6.064340560598412  0.10494507400285924 
H  1.562838434721982  -6.671888572664391  0.10579271039325455 
C  0.9081764986582008  -4.638259784584685  0.0683049555566062 
C  1.9139419465566205  -3.6707802153170004  0.03326787714950036 
H  2.8319844714054234  -3.9153980638814616  0.03524037123753465 
C  1.5277936190698664  -2.3453416423180204  -0.004837350649467609 
C  2.4751717981365857  -1.2318965497256231  -0.034937543508227864 
C  3.856073239034255  -1.2954047402762585  -0.0746346499484506 
H  4.2997833934872025  -2.1336870055255743  -0.13119994499598264 
C  4.585440541277018  -0.11528510123828761  -0.030316414694762317 
H  5.534621571580721  -0.14632675222467784  -0.0378355646227877 
C  3.94072036651652  1.1102884702022742  0.026087993317550406 
H  4.4359045190338815  1.9209924550498543  0.05908426656044985 
C  2.553151597446363  1.1209739009657813  0.035230349169497965 
C  1.667033861244049  2.297552210018191  0.0557061948189681 
C  2.1188098864961926  3.603263259119424  0.12998007490026287 
H  3.048026829267868  3.7989626548094146  0.16583157127953974 
C  1.1744923267069554  4.6123522110805135  0.15061653059811553 
C  1.1646945722639626  6.039748984260184  0.2491176774144872 
H  1.9223567204886198  6.60752834458115  0.3317612926616067 
C  -0.13284210620238812  6.42374424183441  0.19833027548236415 
C  -0.7773744632298645  7.737197211772575  0.2506559527853973 
C  0.03628637909119381  8.870371694308016  0.3228994701687584 
H  0.9815463520644558  8.78044451700887  0.3269375733867592 
C  -0.5491970503846797  10.121961550909385  0.3890106240063276 
H  -9.171305627364568e-05  10.896964153644625  0.4390787203458302 
C  -1.9072133906952338  10.254829685553979  0.3837619817443607 
H  -2.300679196487317  11.11857090159431  0.4303374193221339 
C  -2.707936384261754  9.142182669957958  0.3096677427028973 
H  -3.653376851845822  9.24321446469149  0.31478523303918293 
C  -2.157301504422449  7.871385562004216  0.22849139441870991 
H  -2.715965997141563  7.107335216892846  0.15946701676781494 
C  -0.1714844570166334  4.244911900687576  0.06249799693212743 
C  -0.5827928451967639  2.933303760741861  -0.018815390900408735 
H  -1.5070067556444051  2.721002174930447  -0.08707177812561678 
C  -0.7560871114230368  -2.8575802201165073  0.030616962179610185 
H  -1.6692934062270386  -2.595226329163416  0.022331491032970163 
C  -0.4094345269856947  -4.191875058921285  0.0719875899467155 
C  -1.2003811573527015  -7.652899973539583  0.18199203668632102 
C  -0.48384980394179666  -8.842310453078365  0.17496774010505622 
H  0.46516585899206153  -8.825897450036411  0.13242676177411128 
C  -1.1586330841727752  -10.063577840854364  0.23463098067667665 
H  -0.6689187335373867  -10.877668975731293  0.2397864531625562 
C  -2.525279828996984  -10.086177438091424  0.28468098633221506 
H  -2.9841648386678328  -10.917295269462363  0.329647955060963 
C  -3.2467436722433867  -8.897814518996926  0.27037869947547466 
H  -4.196333449967616  -8.919014286917978  0.2983156621189542 
C  -2.581461001353925  -7.68672015022579  0.2181483659035759 
H  -3.0747674376603227  -6.874926110761546  0.20547290184873934 
O  0.4276685970606091  -5.7975759992376596e-15  -1.8474311661300131 
O  -1.7220183749422402  0.41003931382857184  -6.005513831676317 
N  -1.78766859706051  -7.690622997092957e-16  -0.6325688338700425 
N  -4.109711548095714  0.37665143376391025  -4.860357711166514 
C  -1.9264007318104845  0.07620052281644943  -1.9327838180592871 
C  -3.125286536516809  0.14521856256457624  -2.686036191081127 
C  -3.053920645914181  0.2664654528250703  -4.054764345705234 
C  -1.7150514782025092  0.3012348188159507  -4.77097055409757 
C  -0.5351685992689115  0.20985038204405512  -3.990957517850555 
C  -0.6000660539004248  0.08721599599692512  -2.6272686282055506 
C  -2.945996522485555  0.0473404895109835  0.26168167087312844 
C  -3.1791449834152905  1.4583949172473285  0.7707086909140658 
C  -5.474638843028418  0.3477178385292215  -4.366599109606485 
C  -6.475482024166349  0.7653919415387269  -5.416262327236309 
H  -3.968785655551568  0.10869466189358946  -2.250786859240919 
H  -3.9744435214803158  0.470917912681614  -5.724928594280231 
H  0.3125397432806961  0.23355254879835063  -4.419158759398234 
H  -2.795205663664269  -0.5595514345831585  1.0291350631812555 
H  -3.7503967991273033  -0.2654175937671939  -0.22333770635096561 
H  -3.9574126308949973  1.466320855935969  1.366424208910925 
H  -2.388214379670229  1.762885637275166  1.2629321376091696 
H  -3.342189662215036  2.056648795821647  0.012082419627681862 
H  -5.550263909596211  0.9530309913404515  -3.586803908069321 
H  -5.689243983736084  -0.5692556856488059  -4.060562952366206 
H  -7.379245435169542  0.7306072536994538  -5.038566798504755 
H  -6.279343777723062  1.6800597394059718  -5.709176082165692 
H  -6.418247355215717  0.15775856238924077  -6.182817067103917 
P  0.005086005438194596  0.00018264403277468144  3.4216585880618604 
F  -1.5665568384594897  -0.14980118592162672  3.4198141430473026 
F  -0.007476892665621904  -0.0015895476651651697  4.99662502990366 
F  -0.14702433190830305  1.558506473250777  3.4004581502438125 
F  0.0  0.0  1.8399999999999999 
F  1.562402062752012  0.1437834155051996  3.3932810253569423 
F  0.1535699948432081  -1.5510817992019597  3.4560716966979736 
