46

Ni  0.0  0.0  0.0 
C  2.5248564108723057  -0.3030658105118835  -0.1353537820376328 
C  1.9634218614780283  -2.535450598656002  0.010735726172885521 
H  1.3050239082566775  -3.213378850285834  0.10961459568538841 
C  3.294048593993397  -2.906674905609528  -0.12136538147717493 
H  3.541527448720241  -3.8234060447349703  -0.10902459459529534 
C  4.244230614323884  -1.9313060796820287  -0.2696422564425341 
H  5.161838822994686  -2.163405974686794  -0.3612166203155861 
C  3.8508711346223965  -0.5965534326720108  -0.28132562191353544 
H  4.491259772118449  0.09721462128044452  -0.3902715272105497 
C  2.190868805939883  2.3267531050551487  -1.3262932267943248 
C  2.3792353036695775  1.7565530347554874  -2.5837734224090827 
H  2.2173352686419516  0.8293293041564542  -2.712969521700291 
C  2.8040898006095283  2.5418835659840924  -3.645091632537475 
H  2.930452517587375  2.1528356799838018  -4.502584131721394 
C  3.039965141464804  3.883826054563436  -3.455670406372378 
H  3.348542666460446  4.417129377559548  -4.18116706849349 
C  2.8333145124778314  4.4558142226207105  -2.2259711979714645 
H  2.9785088061705034  5.385932460939117  -2.1053091499756307 
C  2.4114698499136002  3.6801999203929396  -1.1616354075153814 
H  2.273261371665601  4.081754288803508  -0.3127001180198978 
C  2.1182987621697564  1.9900118306288725  1.5729764524257963 
C  3.3824877379429727  2.5687035579488295  1.7346222635837625 
H  3.9713804883980464  2.65279877667842  0.9939897685848608 
C  3.7648370833626075  3.019915093635469  2.992224970371757 
H  4.621733309927991  3.4125322668761133  3.112048099084824 
C  2.9110564280756526  2.902068671646306  4.071583540765407 
H  3.1783496382652636  3.220431303191859  4.9254091872658705 
C  1.6791015054755931  2.328398911374927  3.9102778222316927 
H  1.0992103323005897  2.2380540700603686  4.6572264730247825 
C  1.2688545739231494  1.8803004472732756  2.667402079600282 
H  0.4060323243351953  1.49661035846865  2.559952689797047 
N  1.577542581834164  -1.2615305792964358  1.5449293859618863e-16 
P  1.577542581834164  1.2615305792964358  -1.5449293859618863e-16 
Br  -1.5839191898578664  1.5839191898578664  0.0 
C  -1.308147545195113  -1.308147545195113  0.0 
C  -2.5481111008682706  -1.081588847540519  0.5874691967409313 
H  -2.7399447190521347  -0.23895174706744582  0.9782000501948406 
C  -3.514692573752534  -2.090568128666735  0.6049610958635798 
H  -4.3504064840370384  -1.9365173000894942  1.0287619599160838 
C  -3.2692344052199704  -3.300825455744854  0.016423527177974795 
H  -3.920165040096455  -3.990528127682657  0.045080339651694334 
C  -2.0939695739763726  -3.5035118821402764  -0.6007549227026172 
H  -1.9425337635726068  -4.327915038834382  -1.0474288760065322 
C  -1.0854604411866036  -2.53050399443706  -0.5998012209931928 
H  -0.24896772463074335  -2.712575304189299  -1.0129111498427692 
