62

Pd  0.0  0.0  0.0 
O  0.17695940453300862  2.1038216136249988  7.688294445529209e-15 
C  1.2082801134076546  2.8451050975199177  -0.274650818223626 
C  1.1409294438703808  4.216223323544841  -0.5922485788818981 
H  0.30738335416649215  4.6246889236491295  -0.6481254960373812 
C  2.2503012282688424  4.9561138242721325  -0.8188082419159297 
H  2.134781318491369  5.85639538538816  -1.0180852128872246 
C  3.5142957170591194  4.478556100494418  -0.7731950555763081 
H  4.251687331870186  5.024300340412459  -0.9301202957469357 
C  3.64748471722191  3.1630895856028056  -0.48611747297092234 
H  4.50367177343892  2.8086313407431023  -0.40267894819112326 
C  2.5131361434849717  2.282754734244545  -0.3059873734733528 
C  2.776592111765126  0.8749737445783781  -0.04864352195923641 
H  3.659340933260281  0.6163765810081296  0.08691578293104557 
N  1.8908577663946509  -0.014236656396858054  -3.0253577421035516e-15 
N  2.4245589337061766  -1.3084635350524885  0.14374272355711995 
C  1.562154863835858  -2.338853465066563  0.09016154778895172 
O  0.3321828290723407  -2.08958495722814  -4.6351811278100286e-15 
C  2.0500081230069567  -3.681366260169433  0.19352693126531897 
C  1.1222458710240117  -4.688031791542484  0.0687997019168243 
H  0.21909215246598224  -4.483496275506056  -0.01571493193149484 
C  1.538818170223594  -6.002044129256015  0.06919451350909503 
H  0.924158709032649  -6.687894794555667  -0.0588439247681711 
C  2.860838816509231  -6.289878146200927  0.26164151786059286 
H  3.122259559265671  -7.182826751063231  0.29134276920014446 
C  3.7953146560827236  -5.341795249206986  0.40473454942046483 
H  4.68779607737094  -5.564745788739266  0.5395905080490453 
C  3.3974270399466153  -4.038290413869857  0.34937897898492953 
H  4.038253613863419  -3.3668255134926146  0.41582624923309175 
C  -3.140961365946051  -0.06350955846920947  0.6808285993847201 
H  -3.2073898146021214  -0.07562052845994811  1.60836875787655 
C  -4.184995353342094  -0.10380536705659392  -0.17661671139155355 
H  -5.086449903246121  -0.13463718736419267  0.04795326281215484 
C  -2.3280603276652565  -0.03281389343689213  -1.2976158421173127 
C  -1.313485227267268  0.014054592352096301  -2.3151259505153963 
C  0.6492896580391494  0.1112215200960299  -3.155959844791329 
H  1.5755523255687889  0.1341512491103658  -3.2412602449558143 
C  -0.2292534488878027  0.1835111117004197  -4.1875170338103676 
H  -0.024924717518784698  0.2591758848349811  -5.0914663861767675 
N  -1.9720369064496241  2.220446049250313e-16  -0.02796309355037585 
N  -0.02796309355045601  -2.220446049250313e-16  -1.972036906449544 
N  -3.663600138018144  -0.09054768456880191  -1.4279763972102875 
H  -4.103800655831848  -0.11516802744834938  -2.1650079181325994 
N  -1.4588224100270606  0.12330049753146861  -3.6349682651534008 
H  -2.2041995667577954  0.1503260603174297  -4.060546628301861 
N  0.0  0.0  1.91 
C  -0.2068493445294945  1.15095193093312  2.591562624671454 
C  -0.1658436144116633  1.1791196836305384  3.9761281875125496 
H  -0.3033288734440791  1.9947599664685436  4.442333499108987 
C  0.07579353056118099  0.016051237705860366  4.671462675556776 
H  0.11462593844319158  0.022727902010464374  5.62045604026058 
C  0.259928410405609  -1.15307807223308  3.9777684398402213 
H  0.4166961054774173  -1.9636811104584218  4.449009592756343 
C  0.21888853145375123  -1.153501612740871  2.5964273961623547 
C  -0.5030096342877435  2.3859002727903453  1.7963177405543667 
H  -0.6514342297899063  3.1393877506556365  2.4051542540374373 
H  -1.3073716005155294  2.240912343317118  1.254583592107699 
H  0.2548814544932411  2.5848126119989736  1.2077788133312595 
C  0.417244670850786  -2.4061366590640536  1.8056106204889857 
H  0.40574930770710715  -3.178190157710736  2.4082783165318484 
H  1.2780455755471358  -2.365681251996385  1.3406488774251777 
H  -0.30401622796100114  -2.4943548353070515  1.1480780363339693 
