91

Pd  0.0  0.0  0.0 
C  2.46828  1.31117  -0.21109 
C  3.96605  1.33749  -0.07176 
H  4.48801  2.29044  -0.05083 
C  4.65727  0.17188  -0.07646 
H  5.74227  0.20589  -0.05471 
C  3.96153  -1.16064  -0.10444 
H  4.54156  -2.07556  -0.14504 
C  2.61815  -1.18839  -0.04161 
C  1.6962  -2.32801  -0.00048 
C  1.82923  -3.68823  0.04997 
H  2.74927  -4.25589  0.07251 
C  0.50439  -4.14831  0.07484 
C  -0.58453  -6.00492  -1.15718 
H  -1.44008  -5.34817  -1.42408 
H  -0.94481  -7.05405  -1.10802 
H  0.17321  -5.93654  -1.9685 
C  -1.02833  -5.66005  1.29494 
H  -0.59586  -5.35312  2.27101 
H  -1.42763  -6.69228  1.38494 
H  -1.88067  -4.98395  1.06315 
C  1.19374  -6.53935  0.54076 
H  1.97555  -6.54852  -0.24841 
H  0.81554  -7.57761  0.66507 
H  1.6634  -6.2326  1.50036 
C  0.03506  -5.58322  0.18354 
C  1.5108  2.3811  0.34739 
H  1.78715  3.39066  -0.03431 
H  1.65269  2.45191  1.43642 
C  -0.91313  2.84091  0.80249 
H  -1.95343  2.74626  0.4064 
H  -0.61923  3.91852  0.72937 
C  -1.05167  2.73284  2.30315 
H  -1.71964  1.90137  2.45542 
H  -1.66141  3.53595  2.757 
H  -0.07733  2.73726  2.82752 
C  -0.24831  2.5956  -1.33936 
H  -0.35591  3.71044  -1.31429 
H  -1.24207  2.25165  -1.67539 
C  0.77751  2.50519  -2.4345 
H  1.67283  3.11714  -2.24193 
H  0.20324  2.88658  -3.30285 
H  1.21075  1.5337  -2.64768 
N  1.90904  0.02037  0.0 
N  0.39917  -2.01935  0.0 
N  -0.35683  -3.09635  0.01891 
N  0.09179  1.99898  0.0 
O  -1.91702  0.0  -0.08298 
O  -0.08298  0.0  -1.91702 
N  0.6489  -0.1217  -4.70208 
C  -1.65846  -0.13166  -3.72914 
C  -0.64738  -0.0835  -4.84833 
H  -1.05111  -0.02044  -5.85305 
C  -3.67577  -0.17328  -1.70343 
H  -4.44161  -0.18254  -0.93801 
C  -3.03676  -0.20567  -4.05351 
H  -3.34782  -0.24206  -5.08838 
C  -4.02561  -0.24018  -3.05354 
H  -5.07055  -0.30005  -3.33335 
C  -1.3419  -0.07906  -2.36681 
C  2.57416  1.03875  -5.84308 
H  3.45795  0.95313  -6.45646 
C  -2.33075  -0.0961  -1.36665 
C  1.59333  -0.11754  -5.82434 
H  2.18617  -1.04169  -5.71755 
H  1.06247  -0.14266  -6.79487 
C  2.43098  2.18662  -5.19432 
H  1.55195  2.34268  -4.65924 
H  3.15478  2.99703  -5.2208 
H  1.08567  -0.22575  -3.77433 
P  0.0  0.0  2.31 
O  -1.51961  -0.1682  3.062 
O  1.34673  0.74084  3.03073 
O  0.48809  -1.52035  2.98422 
C  -1.33558  0.15288  4.44777 
H  -2.10377  -0.42898  5.00119 
H  -1.54404  1.22566  4.65604 
C  1.1835  0.72193  4.45318 
H  0.9872  1.7543  4.8028 
H  2.15295  0.39651  4.884 
C  0.36159  -1.60893  4.38797 
H  1.31495  -2.01146  4.78593 
H  -0.4513  -2.33497  4.63106 
C  0.07009  -0.25317  5.00312 
C  0.09413  -0.38977  6.55186 
H  -0.66887  -1.14037  6.86084 
H  1.08772  -0.78207  6.8571 
C  -0.16142  0.89531  7.32938 
H  0.60534  1.65996  7.09345 
H  -0.09061  0.66441  8.41404 
H  -1.17653  1.28984  7.11748 
