49

Pd  0.0  0.0  0.0 
P  1.5244288619020576  -1.47248655172127  -1.7566371353045757e-15 
N  1.524428861902057  1.47248655172127  -2.1787290385605793e-15 
H  1.3060007498804436  1.7692414385412607  0.8874016548480946 
H  1.568051734607827  2.1240450320880284  -0.5600179565327051 
C  2.87596534402708  0.9243858413571799  0.08956991003420148 
C  3.983285628894043  1.765678489192847  0.13573837784348558 
H  3.8720144385692796  2.7062175884335695  0.06735895840192652 
C  5.246026397359042  1.2218867621553495  0.28010887088829145 
H  6.003557206213416  1.7938538942255806  0.3293512659134441 
C  5.415649156524581  -0.15568961885051852  0.3544589486814227 
H  6.287018907702117  -0.5226302468436209  0.4573744589841722 
C  4.320731857006268  -0.9863313612625224  0.2799015011775919 
H  4.441810683809998  -1.9274907989361703  0.3107637852417708 
C  3.03239798238892  -0.4586189321801222  0.1588157476577799 
C  2.1209095536791547  -2.699049230944899  -1.2367754033262865 
C  2.2811713368273385  -4.058855925042989  -0.9761622310801675 
H  2.052875945922886  -4.406920659081399  -0.12144426273588772 
C  2.7745455717708714  -4.907803681841674  -1.9624371575182253 
H  2.8768042712340405  -5.833946741284802  -1.7771042898734817 
C  3.116398031406953  -4.421353986146533  -3.1989179901229767 
H  3.452581853304123  -5.0080344783997015  -3.866514558346785 
C  2.9699300259329364  -3.076473190675028  -3.4683430434205342 
H  3.208532710209143  -2.737001601331359  -4.323227046712601 
C  2.4739643553331527  -2.218429693759503  -2.497677472285192 
H  2.3748689921879667  -1.2948135843898079  -2.6931896241221436 
C  1.4696358741025022  -2.4633953062320484  1.5422349946496292 
C  2.321987654055781  -2.2286777601899534  2.6201286474700383 
H  2.99201935921611  -1.5573790791632842  2.5519300776036866 
C  2.201641011111744  -2.9634076792750053  3.7877283226727188 
H  2.7960262669298555  -2.8026784354504413  4.510248251702817 
C  1.230426168630182  -3.9200894794267898  3.904624357686243 
H  1.1411961050655446  -4.408541329230945  4.71461635528817 
C  0.3834908188378785  -4.174308704425771  2.8508791375722153 
H  -0.2837992809347496  -4.845076772796531  2.9311769656847404 
C  0.5028420769126583  -3.4488260922068386  1.6680641239018363 
H  -0.08122545393009051  -3.6316263084026006  0.9426344302897971 
Br  -1.654629867976521  1.654629867976521  0.0 
C  -1.35204078  -1.31992066  -0.4819701 
C  -1.63807002  -1.59921746  -1.81393823 
H  -1.15796809  -1.15933936  -2.50351594 
C  -2.63068217  -2.5263265  -2.14228996 
H  -2.83682226  -2.69439953  -3.05388981 
C  -3.31015444  -3.19615732  -1.16198741 
H  -3.99601236  -3.81199015  -1.38686634 
C  -2.99747104  -2.9701089  0.1242356 
H  -3.43865917  -3.46858118  0.80170842 
C  -2.03898543  -2.01594063  0.49125628 
H  -1.86191301  -1.84921651  1.41015686 
