66

Ni  0.0  0.0  0.0 
P  1.3164691375038005  1.531995107694537  3.474276920328183e-19 
N  1.3164691375038005  -1.531995107694538  1.3877787807814457e-17 
C  1.2693056836849868  3.2033173117537723  -0.7214083925506241 
C  1.1551635811196723  1.8273345168920598  1.7846021099546356 
C  3.0709857491914363  1.0653188197552734  -0.1962276524535631 
C  3.4419702164516655  -0.28020589481255187  -0.036928036826841745 
C  1.160953385530007  4.379232705315979  0.0228344822342052 
H  1.096639277429218  4.335475861927049  0.9500502845994666 
C  0.753834670379339  -2.7948842972765746  0.41684150613921656 
C  4.8002325814135745  -0.62307823648111  -0.14611354523722797 
H  5.059762254679846  -1.503593450416743  0.002554362268683233 
C  4.054477127781897  2.0037233047170147  -0.4847540131937089 
H  3.81853273054373  2.8984913644289376  -0.5782871663068149 
C  1.3862843996913234  4.539728870587693  -2.738274058730867 
H  1.4722153384085492  4.591132853279589  -3.6623715451112915 
C  5.755682436866744  0.31444900024840816  -0.4669627062223922 
H  6.64410681160456  0.061963774899291835  -0.5703067982265733 
C  -0.12178960952679874  2.114910330801149  2.2716433609307467 
H  -0.8337169858240734  2.1905592473139484  1.6769716512379635 
C  -0.05429701554566213  -2.82842601013317  1.5577790950119434 
C  -0.3422655257555278  2.28859827449206  3.623900366303447 
H  -1.193315187259027  2.496962079569986  3.9346287660165657 
C  1.375013865565557  3.3051173104722382  -2.1015682784132936 
H  1.4392521274577263  2.5301558278689136  -2.612170546514724 
C  1.019506506613789  -3.9467078645564238  -0.3331491373294527 
C  5.385231533390099  1.6281227906488382  -0.6363143832979805 
H  6.025402831128689  2.267191783155837  -0.8522239068670223 
C  1.9801293201224122  1.8720570291611143  4.0496856065101525 
H  2.686967125985135  1.7915324639190975  4.648248886870556 
C  1.2706453318832445  5.689154838827211  -1.9851529333246412 
H  1.272399402248261  6.5203116379609884  -2.4041929773429294 
C  -0.5717196081702767  -4.048394801556135  1.9523375172964257 
H  -1.1061737552827529  -4.096973507601742  2.711844544224559 
C  2.566589714737329  -1.4116619688521932  0.2612695314683792 
H  2.9649212871714132  -2.1328360473142576  0.6930193976601191 
C  2.203625061537008  1.7108562206470181  2.6847968114414926 
H  3.0605382054884105  1.5238474968194722  2.3750223920073985 
C  1.1506325724697843  5.608767460707362  -0.6082883078014885 
H  1.0616413669699143  6.385582539308309  -0.10579442823489005 
C  0.7101708716341018  2.1515042400887356  4.518145162307687 
H  0.5606961427631494  2.247702197418887  5.430593012014439 
C  -0.3171910237352007  -1.5770300165225604  2.3637929085619023 
H  -0.9257480618233984  -1.7777334120201571  3.0780538261747132 
H  -0.702379697994989  -0.9056652681404295  1.795655671750422 
H  0.5096450651005465  -1.2515851064860652  2.7285159716250553 
C  -0.3036186816178983  -5.204132460969752  1.227832544370148 
H  -0.6506543486294285  -6.019618387605688  1.5120582984470814 
C  0.468154667622497  -5.151424590301995  0.10160344788401517 
H  0.627142159824575  -5.928754311538577  -0.38266339158112744 
C  1.8973058260951101  -3.903351636023843  -1.5604142196020643 
H  1.6590689025545355  -3.1435289615560746  -2.0973298569479804 
H  1.774264895733369  -4.7070170223009695  -2.0710244000291307 
H  2.8171980569777517  -3.8312471368350467  -1.2943179310926138 
Br  -1.5839191898578664  1.5839191898578664  0.0 
C  -1.2937473829822488  -1.2398794889499034  -0.4598005675376139 
C  -1.601562203225019  -1.4938654694550033  -1.7919791134336869 
H  -1.1309417375171225  -1.0428217585005106  -2.480879663633267 
C  -2.60218398542082  -2.411889969420291  -2.121542410022959 
H  -2.8231586547736818  -2.5626138747145775  -3.03270050271447 
C  -3.2683208079706407  -3.09759503004543  -1.143064365570095 
H  -3.9596020908062854  -3.707191723557817  -1.3683280760515548 
C  -2.9347449854640226  -2.896087320001541  0.14198826503765638 
H  -3.3668350933519986  -3.405606940434718  0.8171022443470677 
C  -1.9675509241539992  -1.9516175659140573  0.5112421903797603 
H  -1.7755298364628027  -1.8022912010877177  1.4301324877763764 
