119

Fe  0.0  0.0  0.0 
N  0.7454253207132119  1.8871962038873882  -0.005336656035349864 
N  1.8931355719147902  -0.7524165343508742  0.005335804651748453 
N  -0.746929574079143  -1.884309910102569  -0.0053478668832832935 
N  -1.8916313185488591  0.7495302405660551  0.005348718266884704 
C  0.015328828806398576  3.055087792601721  -0.07615607085696921 
C  0.9500643408305386  4.159351117134879  -0.10261590177003768 
H  0.7253741000583283  5.058828717264938  -0.15949465497362472 
C  2.1898214197508015  3.665997929208776  -0.02951352677272493 
H  2.975943434768099  4.161650894074571  -0.013852239313163518 
C  2.087329755565375  2.243483670449495  0.020515788623749108 
C  3.165297861161063  1.3618790914618342  0.0723368232181307 
C  3.0596304732579562  -0.030667944409450334  0.0458771176295636 
C  4.181543706665483  -0.9369231076033162  -0.02696192334114548 
H  5.082371890007776  -0.7031891102043695  -0.022414115503093142 
C  3.679725096501869  -2.1796639147894856  -0.10620811345605888 
H  4.17252472257744  -2.9662483304881406  -0.17321009491767828 
C  2.238402516368014  -2.0810258320728345  -0.06826277600505395 
C  1.3629900316325068  -3.1541493161132053  -0.07382151419486496 
C  -0.01875646012497656  -3.0505399279939263  -0.02033958070854528 
C  -0.9338445588025311  -4.163393149056434  0.03143512382466037 
H  -0.6999573215271413  -5.064757618824092  0.05777431288120601 
C  -2.1720401221552024  -3.6739562880584686  0.03553951052944334 
H  -2.956805461328171  -4.171083175811449  0.048185059381558 
C  -2.0770018639707417  -2.236549332577995  0.019422940868978854 
C  -3.148717518313397  -1.361455780723999  0.0347164604263839 
C  -3.0570428856376006  0.031755736671170216  0.07104385396365528 
C  -4.158882935904719  0.9455216267730229  0.1335743402381295 
H  -5.058022562884428  0.7139182474500883  0.19463681546625897 
C  -3.6692914846061493  2.1886928617006487  0.0923589127395957 
H  -4.165602076977035  2.9757275334946134  0.11602072363023194 
C  -2.240473471842263  2.0894974925963083  0.0019055261268479881 
C  -1.3588830959624674  3.1668146732292595  -0.06464694542148577 
C  4.5348444300601685  1.9593919167563005  0.1883380267692725 
C  5.213256884798198  1.951534144246524  1.3648365973878291 
H  4.83430177109393  1.533734717272396  2.106270040535275 
C  6.457810969935039  2.55056248052922  1.4885086698196686 
H  6.904383313252842  2.509687842775274  2.302342464996627 
C  7.0375029483877025  3.193754506469814  0.4475686533518261 
C  6.38963150503567  3.1619028517208085  -0.749458629118672 
H  6.790908316742995  3.5600701233785  -1.486563068236139 
C  5.145375039739017  2.55368851997598  -0.9058112601412145 
H  4.728988377134164  2.5480332995279436  -1.7378125255768369 
C  8.380558110202289  3.9062967077522286  0.5712593309100387 
H  8.694807133333832  3.8388425533218307  1.4755615085646951 
H  8.274774695132633  4.831298473668695  0.33770532827334726 
H  9.01558953801335  3.4962022010626446  -0.0192711435578519 
C  1.9245505613320568  -4.541626400954201  -0.12704857991050303 
C  1.6539345233594585  -5.366869553352534  -1.191760517202311 
H  1.193978837077378  -5.0335945715258275  -1.9287064400115688 
C  2.0563049070197676  -6.664793378067799  -1.1802687988992553 
H  1.8476235254714921  -7.2127352112417595  -1.9023255061273394 
C  2.7679305281393773  -7.184692180799874  -0.12020423941059624 
C  3.1050723685273693  -6.333444002277646  0.9157957451561942 
H  3.6391509414004384  -6.637479318888069  1.6144970649284323 
C  2.654275020414822  -5.039273479995997  0.9150539959127881 
H  2.8512838331177024  -4.487373398838436  1.6378939077436705 
C  3.1730884884609907  -8.653711693272518  -0.05262584669029761 
H  2.853854133529394  -9.111014982011284  -0.8329777024195699 
H  2.791827360957461  -9.055700364482348  0.7315295147488079 
H  4.131634171804217  -8.718289686911513  -0.01200275373039953 
C  -4.530546068320929  -1.9776178550093788  -0.056200515966497035 
C  -5.245549487531855  -1.870071495171814  -1.2158997748273335 
H  -4.912923526263207  -1.3607419653969521  -1.9220921919414138 
C  -6.470017326104279  -2.5182582584162403  -1.3440798132751914 
H  -6.942838614045891  -2.4387829035729003  -2.140030444685056 
C  -6.996885450303827  -3.271560390551001  -0.32532661577165717 
C  -6.299998738834183  -3.332796238392693  0.8413605883735386 
H  -6.659100702206204  -3.8016079609422655  1.5594751953148411 
C  -5.060356731349585  -2.7126292312216025  0.9861399601639029 
H  -4.588920252521362  -2.7911162171156825  1.785402000720884 
C  -8.314062403148794  -4.002360581654788  -0.48483829426797403 
H  -8.662884507325776  -3.847375123231402  -1.366077885590808 
H  -8.939519848153626  -3.680482114562864  0.16836282094125707 
H  -8.175549849356583  -4.9446137754937  -0.35604803399053614 
C  -1.936628841110104  4.544115680509965  -0.17873708218779896 
C  -1.6955071365772239  5.499817807488553  0.8005774883623183 
H  -1.2440884716136842  5.258369990600117  1.577801954422377 
C  -2.1202313492577702  6.804036198752645  0.6329808862147897 
H  -1.9365508453795401  7.433644005123508  1.2939314158703061 
C  -2.8079423847181406  7.194186103590906  -0.4928481476356981 
C  -3.0771671510322474  6.239312999692333  -1.420766700448511 
H  -3.558539632875053  6.4788214663067745  -2.1804498502843477 
C  -2.665114510811242  4.933197971372301  -1.283369668153559 
H  -2.8803207338671117  4.307329728343828  -1.9376019617056874 
C  -3.2182222806656275  8.63576692788586  -0.7008330365252669 
H  -3.671481102100178  8.7210136330364  -1.5436682221059 
H  -2.438290199714386  9.19308585104867  -0.6994739972654955 
H  -3.806120355649457  8.906335062185288  0.008041083563788486 
N  -1.9937769517644155e-16  -9.633850079088395e-17  1.8699999999999999 
C  -0.48751988437376903  -0.21516299699419283  3.1184000548961306 
C  -1.7257825882960134  -0.8225165535688017  3.2846378466023083 
H  -2.2254156662955227  -1.0568928322025746  2.513200430227837 
C  -2.261369890713479  -1.1011051538263579  4.537365276371338 
H  -3.1136432377965306  -1.519137837053081  4.59745843410264 
C  -1.587948073437513  -0.7875961494947615  5.68740563228053 
H  -1.9692914978728528  -0.979736959143026  6.535732746021236 
C  -0.3179270488128756  -0.1756187261590491  5.595624532163085 
C  0.39819168997687193  0.19922924895183936  6.755796203731327 
H  0.026930186386614263  0.02048560101603547  7.611745714084888 
C  1.6016258384725377  0.8073124408249505  6.669689862525119 
H  2.0604793216481805  1.0489736565447352  7.464640771571971 
C  2.18591824027217  1.0874430749327157  5.427777950579026 
H  3.0350458472160198  1.507133047662831  5.374350954447817 
C  1.500104667813106  0.7410152886343568  4.285702404605225 
H  1.8865994796324808  0.9404620319775906  3.440009022222175 
C  0.24481533307492256  0.10150752345302538  4.319283267687477 
H  0.7491872831056777  0.20420529444376562  1.8471714530933825 
F  -0.0670913883115507  0.04509066638060427  -6.109052196319995 
C  -1.2282666359892786e-16  -2.0379088264535996e-17  -1.9100000000000001 
C  0.2138353248435514  -1.120979789059773  -2.7108464499319203 
C  0.20705124249930684  -1.155801781899059  -4.057401905545037 
C  0.02746216891551634  0.01914458015619236  -4.745073484819943 
C  -0.23827922511482114  1.1715256504485976  -4.048658493359721 
C  -0.16612783321879998  1.16046449250762  -2.663634072119261 
H  0.39755656724245103  -2.0009866471043742  -2.2124920229566256 
H  0.3129968264206393  -2.0629291162103045  -4.566518220931748 
H  -0.5191852282164224  1.932181172511639  -4.530451492661791 
H  -0.1682184550598705  2.0122907722688574  -2.156176134543695 
