48

Pd  0.0  0.0  0.0 
P  1.5505144275368736  -1.4449930830284272  2.2025716316394402e-15 
N  1.550514427536874  1.4449930830284277  5.446843506142688e-16 
N  3.658480466461466  1.9884173036857862  0.34044088347851537 
C  1.6733780219918102  2.8127708621841485  -0.06597949685666786 
C  2.9523004676867712  3.1507003067850894  0.15168969795361478 
C  5.07707043036857  1.8649307540989672  0.6308118985148496 
C  2.7731409645206693  0.9686164705139035  0.23297625224950871 
C  3.08282107928117  -0.45702285205126353  0.3789192496075851 
C  1.9001628897595326  -2.1279885254229303  -1.6714491283116322 
C  1.989282592957355  -1.003771849869446  -2.680770937701207 
C  0.8545888774046739  -3.170805932439096  -2.060477533845573 
C  1.579035564382474  -2.839959345272014  1.1830501434661294 
C  1.5882411950164141  -2.3124630762916003  2.6014564155110547 
C  2.757132304308211  -3.7919653279698124  0.954373821377495 
H  0.9564890419349129  3.3933705618323264  -0.20744524904227662 
H  3.2970490986167937  4.008309969111495  0.19851189948521217 
H  5.461028791590508  2.7071287163545827  0.6850722820395742 
H  5.179580760041322  1.4243495516853661  1.510871337638246 
H  5.486245750677817  1.3196848499810307  -0.005569450435965443 
H  3.3617972287398166  -0.6592277784496928  1.2973962040127773 
H  3.7681783790744485  -0.7193887377103458  -0.19747552280313818 
H  2.7356166064475893  -2.588780246726209  -1.6061036858501232 
H  2.18939497251564  -1.3877076531033803  -3.5023300071190056 
H  1.1502236705253168  -0.5725229827856012  -2.6858659672503347 
H  2.665785324588426  -0.4244027858698985  -2.3828120281582974 
H  1.0656598560533905  -3.554635665961142  -2.8833472730125282 
H  0.8347090121774149  -3.8899507243450353  -1.3863221665650594 
H  -0.007474387656672521  -2.7827962481124824  -2.0723948280245863 
H  0.7713936274399597  -3.36048940789599  1.0947314274630315 
H  0.8534053296476546  -1.7392667823244936  2.752399946509027 
H  1.4956882960721334  -3.0644969598881366  3.2395361979989006 
H  2.3965455605683568  -1.8820658534228432  2.795819331666731 
H  3.5675658713316927  -3.354611061418236  1.1338519787413888 
H  2.6885823334651544  -4.549722436194295  1.5872435997937862 
H  2.7294445426679186  -4.139829913554206  0.0917026743280717 
Br  -1.654629867976521  1.654629867976521  0.0 
C  -1.35204078  -1.31992066  -0.4819701 
C  -1.63807002  -1.59921746  -1.81393823 
H  -1.15796809  -1.15933936  -2.50351594 
C  -2.63068217  -2.5263265  -2.14228996 
H  -2.83682226  -2.69439953  -3.05388981 
C  -3.31015444  -3.19615732  -1.16198741 
H  -3.99601236  -3.81199015  -1.38686634 
C  -2.99747104  -2.9701089  0.1242356 
H  -3.43865917  -3.46858118  0.80170842 
C  -2.03898543  -2.01594063  0.49125628 
H  -1.86191301  -1.84921651  1.41015686 
