59

Pd  0.0  0.0  0.0 
N  1.9178342317595212  0.010176513042852942  -4.817646662580166e-16 
C  0.23800950382672825  2.050055086248992  4.875048531566406e-15 
C  -0.678899846217492  3.0940150545013436  -0.02500836836011024 
C  -0.2212879210077856  4.407080255021748  -0.009968917300481847 
C  1.0965569425382005  4.681727641744972  -0.002212720322278926 
C  2.0469604395136085  3.6777600227077034  -0.01578043426209284 
C  1.6081214931776084  2.3451224582263226  -0.013230745684250799 
C  2.541581007243831  1.191996097351643  -0.013864350584250297 
C  3.929419171019364  1.2027904682363646  0.0034403518216746627 
C  4.612887059030948  -0.0114756373568885  0.009324301547838051 
C  3.9109083546404557  -1.2126903901870587  0.027484317114999154 
C  2.5435999302001377  -1.20482565837162  -0.006775257430018665 
C  1.6083000395518727  -2.3423759394634245  -0.002364753910208988 
C  2.054393486619835  -3.6560451999011434  -0.023946011149785975 
C  1.1311012175852182  -4.696163333648076  -0.023005909184649575 
C  -0.21344803305785032  -4.421522569141329  -0.016133277497167742 
C  -0.6750520707942111  -3.1004926469232474  0.008680971433164994 
C  0.2441562644137506  -2.060231599291845  -4.391549141832413e-15 
H  -1.6110745783217013  2.9114055694880725  -0.0518887480008957 
H  -0.843275904470284  5.122150629338209  -0.004207129108273196 
H  1.3815876844629036  5.58780776964255  0.009320188545939967 
H  2.9740381837102827  3.8861734572140154  -0.02292161991203135 
H  4.404994504800979  2.026440188249116  0.016043947396900283 
H  5.562574811162853  -0.017814627492752866  0.00402801466882665 
H  4.380407000664244  -2.03622967666424  0.060783341282149274 
H  2.985742154378551  -3.8447499015572966  -0.041558354461421254 
H  1.4264499094373018  -5.598802710447  -0.020155352517283686 
H  -0.8390085890705172  -5.136380374877056  -0.02989984351145659 
H  -1.6064459214112017  -2.918411339159296  0.031112921767997664 
N  -1.7889084935847293  0.0  -0.21109150641527052 
N  -0.21109150641535068  0.0  -1.788908493584649 
C  -3.0405514106178333  0.03712772547214514  0.18277432130011584 
C  -4.137144995117574  0.06675451427530787  -0.7115724927598612 
C  -3.9024592621340286  0.035417669845284626  -2.0512803112468547 
C  -2.0807012135579717  -0.04325261415371749  -3.881205459678881 
C  -0.7701482212690854  0.013285115110139457  -4.129913319571482 
C  0.15645584780212363  0.03107995368112835  -3.0584965365682577 
C  -2.557005479887597  0.0019218134708796127  -2.5303197328444353 
C  -1.5683289866869667  0.0065472145356670446  -1.5552840168537192 
H  -3.231590383022994  0.08784741164580703  1.139871612309152 
H  -5.0268505715933856  0.1302831214157352  -0.3793089779666552 
H  -4.636099869002894  0.005168501410501855  -2.6649570239890727 
H  -2.7278973552594876  -0.03253288552913687  -4.6050786057375905 
H  -0.4338732610510434  0.05433395450619232  -5.038531795013525 
H  1.0772214090682433  0.0680397508488875  -3.270796523802397 
N  0.0  0.0  1.91 
C  0.0625493703124404  -0.01485640572272956  3.0377880445733227 
C  0.06992398397628585  -0.032523053535901236  4.463525998977411 
C  -0.8260154314783644  -0.8518226283436708  5.120104753244244 
H  -1.3870352094466543  -1.4313042264393068  4.637198907144885 
C  -0.8819240624720037  -0.8053125719411507  6.507528329385956 
H  -1.4762400290979538  -1.3617720283554953  6.976674889834301 
C  -0.07514685920791275  0.04413494552233743  7.176194613393521 
H  -0.1354789733828814  0.09248374382605173  8.112064646946132 
C  0.8167144852070249  0.8285148770638504  6.533676010290611 
H  1.3764589497314916  1.3997774725981071  7.027506670920023 
C  0.9134131274584135  0.7986386070513996  5.165228791331516 
H  1.5427806484001128  1.3340412682765082  4.717528440721008 
