57

Pd  0.0  0.0  0.0 
P  1.507694464240017  -1.4896165286744096  3.1542137275747826e-15 
N  1.5076944642400203  1.4896165286744096  -5.154923187673577e-16 
C  1.1284769382114153  2.5181091141879177  0.9985042461084039 
C  0.5577716165085176  1.9418308281488201  2.270421465435134 
C  1.7187248080050104  2.115918027779162  -1.3377470636221218 
C  2.7904295382931927  3.1513714953723193  -1.4523530736183607 
C  2.7556592147463905  0.8060638455512511  0.45914424845438884 
C  2.9883751961701943  -0.4874447708674075  -0.26020383921990226 
C  1.6857404274892314  -2.8749365021553466  -1.1238606880060615 
C  1.6760989112275502  -2.60513451468838  -2.5000104650009334 
C  1.8549400725278773  -3.6268503896823128  -3.4155710636562997 
C  1.9959287181593877  -4.902504283433743  -2.949476303806084 
C  1.959376646066926  -5.173829414579854  -1.600253138709123 
C  1.8009608035469633  -4.176392704259385  -0.7027678966333639 
C  1.6906717597251053  -2.182146404747959  1.667606188547697 
C  2.8976418448548937  -2.7126424383165575  2.1095664491705137 
C  3.005669343795982  -3.26243019189955  3.386755278389891 
C  1.8802284811620025  -3.296901731394144  4.200446102768918 
C  0.6832256543604704  -2.7863086053385158  3.7781939124206643 
C  0.5997763308120886  -2.2305128692796816  2.5216706933044515 
H  1.9084851900955684  3.028010129233662  1.2031589353973766 
H  0.4850197888556447  3.0973928146500036  0.5913387375963188 
H  0.3331296782526889  2.653257762262569  2.8733830205895083 
H  -0.23646574945037968  1.4518805080825725  2.078685448000595 
H  1.1862758654157939  1.3722747419559553  2.6873457796531635 
H  1.9128713942481073  1.417867747734721  -1.9505629899654495 
H  0.8816893984776863  2.5192139824330795  -1.5912426970307305 
H  3.6177805917737373  2.7906753634099974  -1.2359545877362712 
H  2.805909490088866  3.481811911093287  -2.36181033635837 
H  2.58421540474456  3.889516037161524  -0.8847677174369367 
H  3.4840937251378072  1.394203325165935  0.2990114080081238 
H  2.679410736069876  0.6398142402112921  1.3871426526684516 
H  3.7566699763178315  -0.9362469304372445  0.09451985940106322 
H  3.1299516295683256  -0.34134381413750997  -1.1936557094032976 
H  1.5261584177813803  -1.7099457400400133  -2.823819183488682 
H  1.9149304652836807  -3.440879178523344  -4.336926207668148 
H  2.1186042536130536  -5.613694505619815  -3.5839986996819966 
H  2.03312026153343  -6.081881308447939  -1.2917010892579583 
H  1.778413043734337  -4.345527924734015  0.22027207851529923 
H  3.6476448190504565  -2.710678916199493  1.5365690204863147 
H  3.8454504257660895  -3.5750968923788116  3.6893962022196947 
H  1.9389311266538065  -3.7716545327941966  5.036430257508151 
H  -0.08661637916575637  -2.7767034219073596  4.362252388831626 
H  -0.23171454350936993  -1.864001103002595  2.226934283777907 
Br  -1.654629867976521  1.654629867976521  0.0 
C  -1.3788582233137676  -1.3788582233137676  0.0 
C  -2.618821778986925  -1.1522995256591737  0.5874691967409313 
H  -2.8106553971707884  -0.30966242518610043  0.9782000501948407 
C  -3.5854032518711887  -2.161278806785389  0.6049610958635797 
H  -4.421117162155692  -2.007227978208148  1.0287619599160838 
C  -3.3399450833386255  -3.3715361338635086  0.016423527177974573 
H  -3.9908757182151104  -4.061238805801311  0.045080339651694 
C  -2.164680252095028  -3.57422256025893  -0.6007549227026177 
H  -2.0132444416912625  -4.3986257169530365  -1.0474288760065327 
C  -1.1561711193052586  -2.601214672555715  -0.5998012209931929 
H  -0.3196784027493984  -2.7832859823079534  -1.0129111498427692 
