59

Ni  0.0  0.0  0.0 
P  1.4045738917906763  -1.451644647460252  1.8515117803682344e-15 
N  1.404573891790674  1.451644647460252  -2.887974995636742e-16 
H  1.5895095838981572  2.103875995301821  0.7350250598976277 
C  2.8437598651159064  -0.472321655096224  -0.484528132115277 
C  4.0746672411329445  -1.0034274366308957  -0.8783435590442975 
H  4.185105574623445  -1.9453006301787237  -0.937540026606605 
C  5.12656877733241  -0.17310269626911726  -1.180188972599633 
H  5.958583459404913  -0.540191784450796  -1.4554546082205113 
C  4.972971737407734  1.1979607650829134  -1.0830828745842613 
H  5.708007273411064  1.7695015422638638  -1.271334941855003 
C  3.758721850287026  1.7417068715291277  -0.7144364812043933 
H  3.650800595241831  2.6845489006679943  -0.670058437097288 
C  2.702135381029792  0.9060279626980896  -0.4106508918202351 
C  0.9989157815650673  -2.460384391420281  -1.459910787193415 
C  1.4424645963855922  -2.0967992668352697  -2.720156095080652 
H  2.041463818388883  -1.3663320985408802  -2.820494662358845 
C  1.010981401739047  -2.800172183744645  -3.8375171837606064 
H  1.3082110760144847  -2.539609737789457  -4.701167589010327 
C  0.1587796285472165  -3.8697671412409607  -3.7043539205564273 
H  -0.12841743975245135  -4.34590458383703  -4.474737253526555 
C  -0.27583757280503085  -4.250065519336358  -2.4630303842022623 
H  -0.8567342180802979  -4.996175813542955  -2.3712305128140243 
C  0.13295546052632434  -3.5455468709265685  -1.33549364424983 
H  -0.18031117297608934  -3.8044667075805276  -0.4769547723743723 
C  2.0737218650298166  -2.571995125688796  1.2723683176828444 
C  2.5163817302948424  -3.859280835224791  0.9813468997288245 
H  2.4166802730230907  -4.2160539862201905  0.10641165746987964 
C  3.1059989604742735  -4.615871683351122  1.9877414547652672 
H  3.4011734307807755  -5.4992335255509435  1.800028834452698 
C  3.2666183237134323  -4.103191130777818  3.2457764110227765 
H  3.686128716921581  -4.623521806278538  3.920663703926824 
C  2.8211688297580153  -2.834346346193281  3.5370220135088553 
H  2.9226206103845587  -2.484194884615341  4.414377916300068 
C  2.2221113440388507  -2.0645957485143156  2.5432204155142 
H  1.9148459726700067  -1.1877392690535915  2.7421557969457417 
C  0.7691172136210723  2.2148652069397277  -1.0884119430424903 
C  0.5524321095207598  3.572326847739775  -0.915575490239611 
H  0.8309957183775741  4.011051921478895  -0.12049300678692516 
C  -0.074067004091247  4.269950124050396  -1.9185948195613376 
H  -0.24748276256765256  5.196393236249332  -1.8041251529626876 
C  -0.4515900227300893  3.6576886855812853  -3.075794556582388 
H  -0.8694997402005631  4.159686489434278  -3.765267241299147 
C  -0.22391663853343302  2.299443347474882  -3.243897773805213 
H  -0.4912982816551117  1.868070634396942  -4.046617431801281 
C  0.39745537207399884  1.5696530252679415  -2.2334862882970503 
H  0.5603273255743295  0.6395282923573887  -2.338703720270365 
Br  -1.5839191898578664  1.5839191898578664  0.0 
C  -1.2937473829822488  -1.2398794889499034  -0.4598005675376139 
C  -1.601562203225019  -1.4938654694550033  -1.7919791134336869 
H  -1.1309417375171225  -1.0428217585005106  -2.480879663633267 
C  -2.60218398542082  -2.411889969420291  -2.121542410022959 
H  -2.8231586547736818  -2.5626138747145775  -3.03270050271447 
C  -3.2683208079706407  -3.09759503004543  -1.143064365570095 
H  -3.9596020908062854  -3.707191723557817  -1.3683280760515548 
C  -2.9347449854640226  -2.896087320001541  0.14198826503765638 
H  -3.3668350933519986  -3.405606940434718  0.8171022443470677 
C  -1.9675509241539992  -1.9516175659140573  0.5112421903797603 
H  -1.7755298364628027  -1.8022912010877177  1.4301324877763764 
