34

Ru  0.0  0.0  0.0 
C  -0.1847  3.48075  1.59023 
H  0.06036  2.63591  2.22605 
C  -1.22874  4.34672  1.95132 
H  -1.77881  4.18  2.86974 
C  -1.59066  5.40835  1.11182 
H  -2.40356  6.06815  1.37947 
C  -0.91262  5.61296  -0.09089 
H  -1.17792  6.42708  -0.74901 
C  0.09298  4.73912  -0.46833 
H  0.589  4.88247  -1.42464 
C  0.45267  3.66121  0.34769 
C  1.45414  2.73423  -0.26245 
C  2.86644  3.31939  -0.44663 
H  3.55974  2.98988  0.35699 
H  2.85352  4.4293  -0.45987 
H  3.25143  2.97144  -1.42803 
C  2.60308  -0.6759  -0.04497 
C  3.83463  -1.45627  -0.20602 
C  3.76065  -2.8004  -0.6056 
H  2.80102  -3.27377  -0.79237 
C  4.92745  -3.54486  -0.79304 
H  4.85488  -4.57319  -1.11363 
C  6.17109  -2.94806  -0.56992 
C  6.25416  -1.61067  -0.17297 
H  7.20749  -1.1436  0.00338 
C  5.08874  -0.85922  -0.00045 
H  5.15982  0.17794  0.29815 
N  1.41646  1.29679  0.0 
N  2.61862  0.62119  -0.02341 
O  1.41646  -1.29679  0.0 
Br  7.76505  -3.96693  -0.80681 
Cl  -1.58392  1.58392  0.0 
Cl  -1.58392  -1.58392  0.0 
