50

Pd  0.0  0.0  0.0 
P  1.5500603851140766  -1.4454801287115635  -2.569904312470297e-15 
N  2.929760001954494  -0.4631437362592668  -0.28087799727685475 
C  4.305428847250246  -0.6682204987217345  -0.4920841751708445 
H  4.727120929386039  -1.5149516060465777  -0.5766193734756286 
C  4.938361101422649  0.5332372076169896  -0.5571477710409679 
H  5.870672984321766  0.6651142125052645  -0.6802752195926611 
C  3.955091712851159  1.5610865916997152  -0.4071218961425207 
C  3.8984171673614627  2.9571923630040864  -0.3945950759489278 
H  4.679441124809744  3.481684170218186  -0.5252955428843202 
C  2.666111016212792  3.550909950643956  -0.18591415691637023 
H  2.6059088485415236  4.499689510292722  -0.18310413905632517 
C  1.5265517424255992  2.8054969189474113  0.017671558944540304 
H  0.703171731642475  3.251435989430907  0.17405619137086525 
N  1.5500603851140764  1.445480128711564  -1.770202612857721e-16 
C  2.7358250916014435  0.894252990286479  -0.21915257861281529 
C  1.9192121910125697  -2.4405052324340377  1.4667090635719187 
C  1.1204699909990512  -2.311999806236604  2.6089567746028512 
H  0.33026198169602416  -1.7867185001028487  2.5787820921724265 
C  1.4804193128482053  -2.9447293518272653  3.77533693039984 
H  0.9437341209175092  -2.842932898816764  4.552596839900434 
C  2.6095160625372182  -3.7245138453053612  3.821963034384922 
H  2.841115237090333  -4.171751242180706  4.627845031443165 
C  3.4165713263144424  -3.862679068771986  2.6980150853081337 
H  4.204567461630903  -4.39116159843562  2.7350103088739526 
C  3.060512581753389  -3.2259710769296115  1.5284828867151776 
H  3.6026074212089636  -3.3257557554838337  0.7548144222153746 
C  1.4946743792468926  -2.573453760181213  -1.410112834869356 
C  1.1524924335177507  -3.905557662374826  -1.2479256597365134 
H  1.008876905925903  -4.257708567039093  -0.3773603086119337 
C  1.019520015162426  -4.725269273392367  -2.3654511139073784 
H  0.7756161384133952  -5.636096533379361  -2.2571512460802228 
C  1.2403952943523469  -4.219049315424332  -3.63226093199281 
H  1.1429776952836526  -4.778709862761698  -4.393805194098287 
C  1.6054448203081217  -2.887504410884129  -3.785265444320021 
H  1.779014665019147  -2.5425999392852097  -4.652563060180995 
C  1.7183338568571935  -2.0642001562204735  -2.6885654718208127 
H  1.947824837684869  -1.1500921973806868  -2.8013235283157303 
Br  -1.654629867976521  1.654629867976521  0.0 
C  -1.3788582233137676  -1.3788582233137676  0.0 
C  -2.618821778986925  -1.1522995256591737  0.5874691967409313 
H  -2.8106553971707884  -0.30966242518610043  0.9782000501948407 
C  -3.5854032518711887  -2.161278806785389  0.6049610958635797 
H  -4.421117162155692  -2.007227978208148  1.0287619599160838 
C  -3.3399450833386255  -3.3715361338635086  0.016423527177974573 
H  -3.9908757182151104  -4.061238805801311  0.045080339651694 
C  -2.164680252095028  -3.57422256025893  -0.6007549227026177 
H  -2.0132444416912625  -4.3986257169530365  -1.0474288760065327 
C  -1.1561711193052586  -2.601214672555715  -0.5998012209931929 
H  -0.3196784027493984  -2.7832859823079534  -1.0129111498427692 
