62

Pd  0.0  0.0  0.0 
P  1.532480624673605  -1.4641048920757003  1.9834212081897683e-16 
N  1.532480624673605  1.4641048920757003  4.2743467955382577e-17 
C  1.6906836014151225  -1.936550000854311  -1.7390419567512936 
C  0.5426768193121282  -1.888425720018046  -2.538710001529602 
H  -0.28171281764425116  -1.6350465243006818  -2.1901511117325443 
C  0.6935749115222346  -2.2457929536308057  -3.9054871180000768 
H  -0.04839185941733515  -2.2176239609423587  -4.467549195241042 
C  1.8744432247225347  -2.6051612426432533  -4.381582024223415 
H  1.9625085385855843  -2.823610427350618  -5.281970131760863 
C  2.927702556816639  -2.6549456743424487  -3.587916030421795 
H  3.7534348876910064  -2.857127015038832  -3.966013654353761 
C  2.8772804727301313  -2.427633890329372  -2.239140075607502 
H  3.6078654632353264  -2.596957872061674  -1.687085702507488 
C  0.317427757608715  -4.510366006384849  1.3251759821568745 
H  -0.2957033248370262  -3.8443901632076347  1.5375394254405936 
C  -0.07306199022667803  -5.857191483625346  1.3256010602311687 
H  -0.9387170484352962  -6.080170873126026  1.5832994344125981 
C  0.7662644810307123  -6.819371910468123  0.9697829875489518 
H  0.4816803217097281  -7.702496143573376  1.0198130301816841 
C  2.015480513165574  -6.560218500727053  0.5372462893638724 
H  2.562397368390891  -7.251782411537103  0.24099639360766226 
C  2.479471233527471  -5.239313055039897  0.5385558587845102 
H  3.3408755599062534  -5.056942029954766  0.23748431295971212 
C  1.655424245504929  -4.168346597317736  0.995507144990211 
C  2.177705995857292  -2.830042459680384  0.9992190759723819 
C  3.2350641798806876  -2.3860665816417277  1.7339181643062287 
C  3.975087607965422  -3.19717993590173  2.761991368133097 
H  4.68505779126926  -3.697061521545771  2.329018436931252 
H  3.367481833449933  -3.829326587421931  3.1737950273534206 
C  4.567337610419294  -2.2921178483614297  3.833728832389465 
H  3.8600656540478804  -1.9675107573174184  4.404076801768285 
H  5.183769734631669  -2.8083111444090485  4.378740343602275 
C  5.275597498763311  -1.155390873396887  3.2470266123912097 
H  5.643717867017024  -0.6356261733956976  3.9752220264865077 
H  6.033290904135611  -1.5145304697782174  2.7467855867182047 
C  4.578710222934379  -0.2617562492101719  2.378815731762277 
H  5.222574735881723  0.2126912536700274  1.830200733810312 
H  4.1119416003175395  0.39473688881719704  2.91883931704664 
C  3.589889864055856  -0.9441016401771101  1.482699352437836 
C  2.881349146281872  -0.3959135463157976  0.4821182637673263 
C  2.764565500552404  1.0510096703648188  0.11937422850174793 
C  3.868919213094219  1.819360251725922  -0.17522774317735068 
H  4.725626972008939  1.4571200851432553  -0.16724917629509845 
C  3.6534157089904977  3.165271136024855  -0.49095775639226735 
H  4.376642842804118  3.737565351101268  -0.6108170251444611 
C  2.3770249117916977  3.6390660592946906  -0.6210912398236024 
H  2.2187138610506913  4.51247654164549  -0.8973759309178243 
C  1.3345838545731294  2.7883215451949477  -0.3276905002978613 
H  0.465823809492923  3.1196130582724964  -0.35309930654752975 
Br  -1.654629867976521  1.654629867976521  0.0 
C  -1.35204078  -1.31992066  -0.4819701 
C  -1.63807002  -1.59921746  -1.81393823 
H  -1.15796809  -1.15933936  -2.50351594 
C  -2.63068217  -2.5263265  -2.14228996 
H  -2.83682226  -2.69439953  -3.05388981 
C  -3.31015444  -3.19615732  -1.16198741 
H  -3.99601236  -3.81199015  -1.38686634 
C  -2.99747104  -2.9701089  0.1242356 
H  -3.43865917  -3.46858118  0.80170842 
C  -2.03898543  -2.01594063  0.49125628 
H  -1.86191301  -1.84921651  1.41015686 
