56

Pd  0.0  0.0  0.0 
O  0.17695940453300862  -2.1038216136249988  -7.430650605018922e-15 
C  1.2082801134076546  -2.8451050975199177  0.27465081822362636 
C  1.1409294438703808  -4.216223323544841  0.5922485788818986 
H  0.30738335416649215  -4.6246889236491295  0.6481254960373818 
C  2.2503012282688424  -4.9561138242721325  0.8188082419159303 
H  2.134781318491369  -5.85639538538816  1.0180852128872253 
C  3.5142957170591194  -4.478556100494418  0.7731950555763086 
H  4.251687331870186  -5.024300340412459  0.9301202957469363 
C  3.64748471722191  -3.1630895856028056  0.4861174729709227 
H  4.50367177343892  -2.8086313407431023  0.4026789481911236 
C  2.5131361434849717  -2.282754734244545  0.3059873734733531 
C  2.776592111765126  -0.8749737445783781  0.04864352195923651 
H  3.659340933260281  -0.6163765810081296  -0.0869157829310455 
N  1.8908577663946509  0.014236656396858054  3.0236142545348543e-15 
N  2.4245589337061766  1.3084635350524885  -0.14374272355712012 
C  1.562154863835858  2.338853465066563  -0.09016154778895201 
O  0.3321828290723407  2.08958495722814  4.379280774868439e-15 
C  2.0500081230069567  3.681366260169433  -0.19352693126531942 
C  1.1222458710240117  4.688031791542484  -0.06879970191682487 
H  0.21909215246598224  4.483496275506056  0.015714931931494293 
C  1.538818170223594  6.002044129256015  -0.06919451350909576 
H  0.924158709032649  6.687894794555667  0.05884392476817028 
C  2.860838816509231  6.289878146200927  -0.26164151786059364 
H  3.122259559265671  7.182826751063231  -0.29134276920014535 
C  3.7953146560827236  5.341795249206986  -0.4047345494204655 
H  4.68779607737094  5.564745788739266  -0.539590508049046 
C  3.3974270399466153  4.038290413869857  -0.34937897898493003 
H  4.038253613863419  3.3668255134926146  -0.41582624923309214 
N  -1.7889084935847293  0.0  -0.21109150641527052 
N  -0.21109150641535068  0.0  -1.788908493584649 
C  -3.0405514106178333  0.03712772547214514  0.18277432130011584 
C  -4.137144995117574  0.06675451427530787  -0.7115724927598612 
C  -3.9024592621340286  0.035417669845284626  -2.0512803112468547 
C  -2.0807012135579717  -0.04325261415371749  -3.881205459678881 
C  -0.7701482212690854  0.013285115110139457  -4.129913319571482 
C  0.15645584780212363  0.03107995368112835  -3.0584965365682577 
C  -2.557005479887597  0.0019218134708796127  -2.5303197328444353 
C  -1.5683289866869667  0.0065472145356670446  -1.5552840168537192 
H  -3.231590383022994  0.08784741164580703  1.139871612309152 
H  -5.0268505715933856  0.1302831214157352  -0.3793089779666552 
H  -4.636099869002894  0.005168501410501855  -2.6649570239890727 
H  -2.7278973552594876  -0.03253288552913687  -4.6050786057375905 
H  -0.4338732610510434  0.05433395450619232  -5.038531795013525 
H  1.0772214090682433  0.0680397508488875  -3.270796523802397 
N  -1.4628419816877152e-16  -1.6540126465732465e-16  1.91 
C  -0.9394953060931446  0.6075208344385508  2.607717955589529 
H  -1.6200021581968946  1.0441920483244131  2.1487040503499446 
C  -0.9614404957650231  0.6242094286207931  3.976791448676911 
H  -1.649145690482436  1.0622718608137578  4.424371922625307 
C  0.005753487105812249  0.009451201820816157  4.67488597814996 
H  0.011329732832732642  0.026409140019476363  5.605101261735242 
C  0.962306886059608  -0.6313170622673059  3.9888256333642893 
H  1.6384559860650816  -1.0847592714523289  4.438951135298134 
C  0.9371359520532475  -0.6093750126517105  2.6108704597320282 
H  1.6151016064210153  -1.0486031676664633  2.15080549764513 
