46

Ru  0.0  0.0  0.0 
N  1.40923  1.36223  0.0 
N  7.00681  0.22185  -1.37483 
N  1.40923  -1.36223  0.0 
C  2.55394  0.69408  -0.20946 
C  1.76358  2.67373  -0.0467 
C  0.97808  3.75037  0.09171 
H  -0.07172  3.66729  0.32346 
C  1.56511  5.10951  -0.08427 
H  0.92479  5.97708  0.034 
C  2.86507  5.28169  -0.41003 
H  3.25442  6.28342  -0.55692 
C  3.79271  4.10271  -0.57984 
H  4.84145  4.22317  -0.91107 
C  3.13544  2.78105  -0.35853 
C  3.63359  1.48565  -0.4602 
C  4.85608  0.84144  -0.77709 
C  6.19525  1.2951  -1.16566 
C  6.29938  -0.90812  -1.14314 
C  4.92818  -0.56353  -0.77072 
C  3.80566  -1.37024  -0.47031 
C  3.79614  -2.72153  -0.4317 
H  4.69628  -3.29503  -0.61498 
C  2.52671  -3.46196  -0.13406 
H  2.53356  -4.54607  -0.0899 
C  1.37238  -2.7848  0.05504 
H  0.45372  -3.32156  0.24844 
C  2.6119  -0.69012  -0.21895 
C  8.41246  0.28664  -1.74663 
H  9.0064  -0.45934  -1.17431 
H  8.80614  1.27915  -1.43988 
C  8.61833  0.11435  -3.23223 
C  8.46068  -1.13522  -3.86011 
H  8.17893  -2.01095  -3.29345 
C  8.68998  -1.27207  -5.23523 
H  8.57928  -2.23244  -5.71211 
C  9.06816  -0.15761  -5.99561 
H  9.24241  -0.26272  -7.05906 
C  9.22188  1.087  -5.38233 
H  9.51116  1.94666  -5.96988 
C  9.00432  1.22092  -4.00881 
H  9.13265  2.19411  -3.55131 
O  6.54515  2.45612  -1.31202 
O  6.75995  -2.03772  -1.22685 
Cl  -1.58392  1.58392  0.0 
Cl  -1.58392  -1.58392  0.0 
