40

Fe  0.0  0.0  0.0 
N  1.3091809901614053  1.3352696862431945  -4.596173071182521e-16 
C  2.874379047402518  2.8532295941796053  -0.6143889806192926 
N  -0.47444902963692415  -4.38469259829633  0.221834163103086 
C  2.39869218629668  -0.7442575984751296  -0.4996281473335381 
N  3.3033700601679037  1.5883957427111919  -0.8718611716343448 
H  4.0583458085380615  1.385351194637313  -1.2312478726548564 
C  -1.117318816703331  -4.052597887715717  2.3276641752554523 
N  1.3091809901614064  -1.3352696862431945  0.0 
C  1.325637929204883  -2.6674466002602646  0.07518569622791832 
C  1.5729602318414095  2.722343720111938  -0.07479937316458589 
C  2.3639558774987597  0.7062615101023426  -0.4782233697661147 
C  2.6680637316684725  5.2217329479088495  -0.565508576908838 
H  3.0002100524153708  6.074867514458518  -0.7367303423839389 
C  3.5321556612517826  -1.4242290374692403  -0.9500326023459426 
H  4.285988724976993  -0.9776813915943519  -1.2607008691487023 
C  0.8359735063392063  3.8072978570368625  0.24205437417484996 
H  -0.019125722108501275  3.729292446539565  0.6009619882502688 
C  3.463287005568631  -2.7700287687998504  -0.9056185120720796 
H  4.167654424220888  -3.280689129792881  -1.2334586030487986 
C  3.4149439382553233  4.122575242075415  -0.8792466120842897 
H  4.260437597033055  4.212537870028102  -1.2573833182349965 
C  -1.8289082870071158  -4.2410886380061115  3.4900454908347247 
H  -1.714002720455382  -3.6775678243815335  4.220504704882528 
N  -0.1268027823148472  -3.121782747669446  2.0324171758126752 
H  0.18926517100187223  -2.513692173633816  2.5518342362325126 
C  -1.2686405376650296  -4.852500492413558  1.2067637203698167 
C  0.22226581863985495  -3.3703596706832943  0.8039779444412144 
C  -2.704799997158969  -5.276906918200405  3.5329832656099414 
H  -3.182856185015762  -5.455893678300097  4.312843195956981 
C  -2.8744637064735983  -6.061605451983464  2.4071363280467843 
H  -3.5062345918472104  -6.7434171933714016  2.446380406578731 
C  2.3567439276329045  -3.3946044059105898  -0.37738296783045516 
H  2.3242986493247466  -4.323863822778688  -0.33460411701059795 
C  1.4270739220414708  5.070425850862085  5.0221789629441294e-05 
H  0.9502302645640939  5.8340791379137045  0.23648277770962778 
C  -2.1694779098675125  -5.906041072637427  1.220141487930604 
H  -2.2951234982816233  -6.466367007321853  0.4893019070155529 
Cl  -1.5202795795510768  1.5202795795510768  0.0 
Cl  -1.5202795795510768  -1.5202795795510768  0.0 
