48

Ni  0.0  0.0  0.0 
P  1.4114159521558483  1.4449930830284272  6.969675246911704e-16 
N  1.4114159521558483  -1.4449930830284277  -7.216449660063518e-16 
N  3.506216659634506  -1.9884173036857862  -0.4138004499151313 
C  1.5365073526616886  -2.8127708621841485  0.0616514263203511 
C  2.8070541680115397  -3.1507003067850894  -0.20051891997396076 
C  4.91380865458285  -1.8649307540989672  -0.7535026545422407 
C  2.6251669441404397  -0.9686164705139035  -0.2755033802073 
C  2.9295650729872484  0.4570228520512636  -0.4321651531785469 
C  1.8191841513244098  2.1279885254229303  1.6582283713093406 
C  1.9434743883655345  1.0037718498694457  2.6638250963356986 
C  0.7878239699635304  3.1708059324390954  2.08350979804622 
C  1.3986318601147099  2.839959345272014  -1.1833248346049692 
C  1.35833021791316  2.3124630762916007  -2.6011883237489855 
C  2.58399162388627  3.7919653279698124  -0.9959027992433875 
H  0.8249921655536663  -3.3933705618323264  0.22805006598755967 
H  3.1499587161224487  -4.008309969111495  -0.2593441523938132 
H  5.295639458669446  -2.7071287163545827  -0.8211299376687569 
H  4.9855429062388215  -1.424349551685366  -1.6366035441461273 
H  5.344944105131759  -1.3196848499810307  -0.13178898465664152 
H  3.1763168942717455  0.6592277784496929  -1.3598187234476438 
H  3.634620759090316  0.7193887377103458  0.11995987028631734 
H  2.6518484091277603  2.588780246726209  1.563765821295155 
H  2.1721368629031104  1.3877076531033798  3.477899872835685 
H  1.1051044119253786  0.5725229827856009  2.6981997562271167 
H  2.6091663968299104  0.4244027858698982  2.342438090458118 
H  1.027484109623647  3.5546356659611416  2.898511996277933 
H  0.7444285319956537  3.8899507243450353  1.4104589052913326 
H  -0.07329824188000611  2.782796248112482  2.125505406607963 
H  0.5945641955563452  3.36048940789599  -1.0668736228622426 
H  0.6186741414366522  1.739266782324494  -2.7263945021659053 
H  1.24356503642935  3.064496959888137  -3.235649355682156 
H  2.159359018333799  1.8820658534228436  -2.8236422548078344 
H  3.3876677993168025  3.354611061418236  -1.2035553469630795 
H  2.493396575088339  4.549722436194295  -1.625994691008849 
H  2.5864275177340548  4.139829913554206  -0.13279087920208413 
Br  -1.5839191898578664  1.5839191898578664  0.0 
C  -1.2937473829822488  -1.2398794889499034  -0.4598005675376139 
C  -1.601562203225019  -1.4938654694550033  -1.7919791134336869 
H  -1.1309417375171225  -1.0428217585005106  -2.480879663633267 
C  -2.60218398542082  -2.411889969420291  -2.121542410022959 
H  -2.8231586547736818  -2.5626138747145775  -3.03270050271447 
C  -3.2683208079706407  -3.09759503004543  -1.143064365570095 
H  -3.9596020908062854  -3.707191723557817  -1.3683280760515548 
C  -2.9347449854640226  -2.896087320001541  0.14198826503765638 
H  -3.3668350933519986  -3.405606940434718  0.8171022443470677 
C  -1.9675509241539992  -1.9516175659140573  0.5112421903797603 
H  -1.7755298364628027  -1.8022912010877177  1.4301324877763764 
