54

Fe  0.0  0.0  0.0 
O  1.24046  1.34601  0.0 
C  2.55782  1.23777  -0.24086 
C  3.24497  -0.06745  -0.36077 
N  1.24046  -1.34601  0.0 
C  3.22053  2.3809  -0.47002 
C  4.70018  -0.09388  -0.73428 
H  5.231  -1.04649  -0.95142 
C  2.62837  -1.23227  -0.19255 
H  3.19284  -2.15566  -0.30253 
C  5.3349  1.22779  -1.03098 
H  6.36142  1.24619  -1.37989 
C  4.65372  2.37283  -0.88467 
H  5.15415  3.30215  -1.12828 
C  3.01407  4.7171  0.11499 
H  2.2211  5.48999  0.05228 
H  3.89632  5.05496  -0.46123 
H  3.27691  4.57106  1.1839 
O  2.51497  3.53455  -0.36695 
H  0.85512  -2.30092  0.02281 
N  -1.49698  1.1207  0.0 
N  -1.49698  -1.1207  0.0 
C  -1.07855  3.63911  0.07261 
H  -0.82328  3.76136  1.14444 
H  -1.57887  4.55489  -0.30375 
H  -0.16524  3.45631  -0.52494 
C  -2.01049  2.46223  -0.06466 
C  -3.4867  2.56194  -0.41117 
H  -3.94222  3.53142  -0.58459 
C  -4.23681  1.44153  -0.53321 
H  -5.28513  1.51777  -0.80707 
C  -3.64903  0.08448  -0.33521 
H  -4.26251  -0.79838  -0.46031 
C  -2.34611  0.00886  -0.0888 
C  -2.04289  -2.42897  -0.04449 
C  -2.2432  -3.03326  -1.29397 
H  -1.86568  -2.56297  -2.19283 
C  -2.99443  -4.20629  -1.40139 
H  -3.16962  -4.6533  -2.37147 
C  -3.55775  -4.78268  -0.26433 
H  -4.155  -5.68199  -0.35082 
C  -3.38226  -4.1842  0.98301 
H  -3.85664  -4.63923  1.84257 
C  -2.63691  -2.996  1.11581 
C  -2.51613  -2.31865  2.47466 
H  -1.85808  -1.42659  2.407 
C  -1.88514  -3.26803  3.49924 
H  -2.50868  -4.17512  3.64416 
H  -1.78638  -2.75906  4.48074 
H  -0.87595  -3.5785  3.15544 
C  -3.88312  -1.82186  2.9634 
H  -4.31267  -1.10613  2.23076 
H  -3.76767  -1.28942  3.93193 
H  -4.5956  -2.66136  3.10298 
