45

Ni  0.0  0.0  0.0 
P  1.433277970248618  1.423311020121744  1.4118930998976002e-14 
N  1.4332779702486187  -1.423311020121744  -1.3739009929736312e-14 
C  1.2314423812601318  -2.724285202027265  -0.11546697810601811 
H  0.34653249244810347  -3.0538550032642977  -0.010371379742977832 
C  2.2512753213953074  -3.6405169964585697  -0.3819702108977818 
H  2.054340743753256  -4.5670022560803245  -0.4360375377464212 
C  3.5198622511476305  -3.208077388180009  -0.5661434360242791 
H  4.223489476464719  -3.8280457629940825  -0.7173269735634558 
C  5.061558406631498  -1.26183452851111  -0.7770545911444753 
H  5.803523615777433  -1.832053903283166  -0.9370299425321453 
C  5.236925032012146  0.07924225865290091  -0.7899982240369705 
H  6.0989436869592035  0.4381083622514754  -0.9616707559436992 
C  4.161722682992751  0.9419845072831141  -0.5560642566622453 
H  4.296521458741279  1.8820317148748564  -0.5723598866183617 
C  2.912843141997625  0.43367536769806403  -0.29908373074999584 
C  2.713909071535082  -0.9554093734788063  -0.25980947151076317 
C  3.782148051878782  -1.8330979266758036  -0.5255486189114533 
C  1.2303929905769964  2.556106064357519  -1.3674573385589068 
C  0.9987878635227561  2.015750239715552  -2.64822780897804 
H  1.0290498049000423  1.0760505036130714  -2.7844784635570705 
C  0.7266000386336313  2.868999868806444  -3.7036091848030144 
H  0.5760576701495821  2.5045343003774736  -4.567158913956419 
C  0.6704311829125211  4.214978662560274  -3.5301514193038357 
H  0.4684843096379179  4.7824633504332885  -4.263107133794345 
C  0.911173982898627  4.756195507726057  -2.2704192847753566 
H  0.8876702362192842  5.697496531226458  -2.1476438920896457 
C  1.187692497401851  3.916293537531403  -1.1904772670725043 
H  1.3461954810492969  4.286317890996285  -0.3299055431483686 
C  1.7933742593716264  2.447151410169039  1.446876780609823 
H  2.553196198875344  3.0348225995120233  1.2510167707431923 
H  2.016748823565754  1.8696527760828754  2.208285174114765 
H  1.0082616872794945  2.989534332163055  1.6679579988805329 
Br  -1.5839191898578664  1.5839191898578664  0.0 
C  -1.308147545195113  -1.308147545195113  0.0 
C  -2.5481111008682706  -1.081588847540519  0.5874691967409313 
H  -2.7399447190521347  -0.23895174706744582  0.9782000501948406 
C  -3.514692573752534  -2.090568128666735  0.6049610958635798 
H  -4.3504064840370384  -1.9365173000894942  1.0287619599160838 
C  -3.2692344052199704  -3.300825455744854  0.016423527177974795 
H  -3.920165040096455  -3.990528127682657  0.045080339651694334 
C  -2.0939695739763726  -3.5035118821402764  -0.6007549227026172 
H  -1.9425337635726068  -4.327915038834382  -1.0474288760065322 
C  -1.0854604411866036  -2.53050399443706  -0.5998012209931928 
H  -0.24896772463074335  -2.712575304189299  -1.0129111498427692 
