60

Ni  0.0  0.0  0.0 
P  1.4724259769170063  -1.3827732071818577  8.884308447604936e-17 
N  1.4724259769170063  1.3827732071818573  -1.6934087821219814e-16 
C  2.9609594158310033  -0.4714776140540729  -0.43846846315420057 
C  4.200419141610393  -1.0144381777246263  -0.7722631672306602 
H  4.310305291576264  -1.9671882333067607  -0.7753833649677713 
C  5.241007373167082  -0.16644038682891008  -1.1155933129820736 
H  6.097993489683682  -0.5385390016470449  -1.330746065574901 
C  5.050921338103925  1.1764822814404217  -1.1253905739434473 
H  5.777012027086342  1.7615550546168837  -1.3564358107708714 
C  3.84529239963013  1.717242791635683  -0.8362064918643457 
H  3.7068487540672215  2.6654857306728683  -0.8914023754914248 
C  2.7736076360262576  0.8860613664890481  -0.39923535328588466 
C  1.550584866605481  -1.7873068661323617  1.7749405614664546 
C  2.711033249185737  -2.341955116486502  2.3438873074330817 
H  3.4409002054520084  -2.623251762226937  1.787372794373627 
C  2.745725456375654  -2.516829458673693  3.7245954175001215 
H  3.5277409692336814  -2.8948537921544713  4.13206595747304 
C  1.689415324760017  -2.1183039397108963  4.5412795954916145 
H  1.740784101400779  -2.252936010272497  5.491027032636209 
C  0.6098511532842354  -1.5657112795180619  3.9506637714851345 
H  -0.129650465346014  -1.2949291888214232  4.500719382674821 
C  0.5018466256777669  -1.3840085182156041  2.6033749128688393 
H  -0.26700745581191665  -0.9748038402097305  2.2017097875781495 
C  1.6307460241081317  -2.924350563416858  -0.9741811163233093 
C  1.5700699276313101  -2.8222100863910953  -2.3325045808446663 
H  1.4838757339988322  -1.949953758501909  -2.724480689097877 
C  1.6045148653956258  -3.920841298732922  -3.1249639019020816 
H  1.5837658100887466  -3.8371951307284613  -4.081238237687612 
C  1.7008510551618514  -5.1621954167363455  -2.574528299622141 
H  1.7232835488150664  -5.951337410038279  -3.120641655653614 
C  1.7407226389671073  -5.297441915604473  -1.2086680207689853 
H  1.8314776087092928  -6.170916740490311  -0.8204355185776363 
C  1.6724872831490667  -4.196773449441581  -0.3912495882565877 
H  1.6488832419504766  -4.289379669561349  0.5645661666011353 
P  1.329951882480328  2.6720542264701743  0.9196460437132 
C  0.04198762355975094  2.4755754159255985  2.1118313710638814 
H  0.2051250538562397  1.685623777922577  2.6320615878454543 
H  -0.8012003502144349  2.393848398499278  1.6615202502760502 
H  0.022068759068630595  3.242368003092464  2.6902282478736916 
C  0.9857174274151554  4.176225278669667  -0.025916638329125868 
H  1.673292188306066  4.304436346890547  -0.6828074056348364 
H  0.9659613513136244  4.930433904193637  0.5684049805291486 
H  0.1359447330476513  4.0914795124143115  -0.4646248021569717 
C  2.8235580309115527  2.9768446453263095  1.9174291884605998 
H  3.578385155409765  3.0959513463706982  1.3349310289028848 
H  2.981137424357083  2.2270529697173935  2.4955571223549167 
H  2.698962950062331  3.768659079763788  2.4459052591058383 
Br  -1.5839191898578664  1.5839191898578664  0.0 
C  -1.2937473829822488  -1.2398794889499034  -0.4598005675376139 
C  -1.601562203225019  -1.4938654694550033  -1.7919791134336869 
H  -1.1309417375171225  -1.0428217585005106  -2.480879663633267 
C  -2.60218398542082  -2.411889969420291  -2.121542410022959 
H  -2.8231586547736818  -2.5626138747145775  -3.03270050271447 
C  -3.2683208079706407  -3.09759503004543  -1.143064365570095 
H  -3.9596020908062854  -3.707191723557817  -1.3683280760515548 
C  -2.9347449854640226  -2.896087320001541  0.14198826503765638 
H  -3.3668350933519986  -3.405606940434718  0.8171022443470677 
C  -1.9675509241539992  -1.9516175659140573  0.5112421903797603 
H  -1.7755298364628027  -1.8022912010877177  1.4301324877763764 
