73

Ni  0.0  0.0  0.0 
P  1.2985744722579453  1.547192405617349  -1.1581724680731007e-15 
N  1.298574472257945  -1.547192405617349  0.0 
C  3.0476757262255765  1.0655077183772819  0.10047624319878742 
C  4.02303585985271  1.9903645395488154  -0.2680080170666783 
C  5.361469637053504  1.6593896988368266  -0.2486544937769339 
C  5.722963724312804  0.39633760337346025  0.1398906374783337 
C  4.765918972064489  -0.550875764969851  0.49513701258395243 
C  3.4110409732371054  -0.2351278022560126  0.48235842363041764 
C  2.4633979980582623  -1.3100478729348741  0.9206231989044111 
C  1.9893182140537222  -1.1016253400752132  2.3480475598407904 
C  1.8320311284573065  -1.8068654356434313  -1.3662828563052793 
C  0.6782050648719021  -2.8356728252226646  0.42836683657026053 
C  0.9651672789530641  2.8544681346453458  1.2542659493691595 
C  0.8864885982794997  2.3123878885460587  2.680605755304776 
C  0.40379328593896324  3.3837760584864216  3.6495672585423033 
C  1.2381099197901642  4.635195302124343  3.587447365336476 
C  1.344015139489963  5.139285050217955  2.1836678704344705 
C  1.8846957424247903  4.072529723596871  1.2124898750414566 
C  1.1830696224895367  2.432804644292517  -1.620167942649398 
C  1.5504205993574598  1.5297640496468188  -2.797344426536235 
C  1.544591385539677  2.3433451824327802  -4.0893385057180875 
C  0.2188164567343165  3.045778716913808  -4.334608943781175 
C  -0.12928520235439178  3.919861394084388  -3.1457880285840947 
C  -0.1702119856140416  3.0983748191856075  -1.859737914602088 
H  3.7747455119032503  2.8160205183152587  -0.5226415337968316 
H  5.984392423151535  2.261595673101694  -0.4853416863319475 
H  6.593914669287809  0.17366728858314517  0.16516794663807166 
H  5.025804857969968  -1.377299334112053  0.7373204568434204 
H  2.980252186654713  -2.1040890054660273  0.8802315218045176 
H  1.3914817174229515  -1.799661502920174  2.5883393380125157 
H  2.736894208266035  -1.1078906629689942  2.932965040009164 
H  1.5421242310825294  -0.2653332116351721  2.4151343506687133 
H  1.1106111154715297  -1.9595345213643829  -1.9645890781756192 
H  2.331385182777156  -1.054127129941047  -1.6585651540289668 
H  2.3944155886093794  -2.5719756609147733  -1.3460659780916158 
H  -0.06789994564361668  -3.027803176251235  -0.1288404870511211 
H  1.316235944682184  -3.5338270729285246  0.35603936724641244 
H  0.38652162297352677  -2.7612258271752297  1.3303831746728805 
H  0.10709571128392525  3.166221086798403  0.9905895727600771 
H  1.7462479472540384  2.0172087574038198  2.948433017526165 
H  0.2783561781977675  1.5819331655931923  2.701360450228996 
H  0.44421345387500466  3.035498101560314  4.531775649311418 
H  -0.49397230977023465  3.6049900708855023  3.436135827213125 
H  0.8356041126298077  5.302627688846769  4.127861405083963 
H  2.107243013734389  4.444426591698681  3.913103140862552 
H  0.4795382823717613  5.407719278884095  1.8906742555083682 
H  1.9270538788465563  5.887090200889142  2.1714390095255225 
H  1.9054093095065663  4.425161890106441  0.33218077405388974 
H  2.7599901305274477  3.8192985814470553  1.4753282717826905 
H  1.8229412399534355  3.130303763394901  -1.5616404105338555 
H  0.9149673093999175  0.8254029203888429  -2.864549008765207 
H  2.4143768088615385  1.1650941495416207  -2.6582718123499034 
H  1.7169520257837951  1.757316116682412  -4.818061603877067 
H  2.229296624700631  2.9973275289892594  -4.039890999633037 
H  -0.46372613277936914  2.3959044049992544  -4.458167359979989 
H  0.2875167274082193  3.585118289012495  -5.112526927104448 
H  0.5241351503561493  4.600737092656383  -3.0586144904103634 
H  -0.9828507828646007  4.3143191407642405  -3.287456606089983 
H  -0.37445250269012686  3.669664994079733  -1.1275755506049077 
H  -0.8413005033495211  2.429597816245801  -1.9338062054049643 
Br  -1.5839191898578664  1.5839191898578664  0.0 
C  -1.2937473829822488  -1.2398794889499034  -0.4598005675376139 
C  -1.601562203225019  -1.4938654694550033  -1.7919791134336869 
H  -1.1309417375171225  -1.0428217585005106  -2.480879663633267 
C  -2.60218398542082  -2.411889969420291  -2.121542410022959 
H  -2.8231586547736818  -2.5626138747145775  -3.03270050271447 
C  -3.2683208079706407  -3.09759503004543  -1.143064365570095 
H  -3.9596020908062854  -3.707191723557817  -1.3683280760515548 
C  -2.9347449854640226  -2.896087320001541  0.14198826503765638 
H  -3.3668350933519986  -3.405606940434718  0.8171022443470677 
C  -1.9675509241539992  -1.9516175659140573  0.5112421903797603 
H  -1.7755298364628027  -1.8022912010877177  1.4301324877763764 
