72

Pd  0.0  0.0  0.0 
C  1.52384  -2.31557  -0.03438 
C  2.55295  -1.38426  0.03083 
C  3.86416  -1.83931  0.312 
H  4.66729  -1.16723  0.52818 
C  4.13382  -3.21856  0.43891 
C  3.08455  -4.13873  0.25918 
H  3.25767  -5.207  0.35723 
C  1.77938  -3.68732  0.03589 
H  0.96304  -4.39477  -0.01762 
C  4.3966  0.95229  -0.70243 
H  4.95909  0.9633  0.25381 
H  4.76084  1.78617  -1.33154 
H  4.58202  0.03384  -1.29816 
C  2.90589  1.10188  -0.41096 
C  2.30155  2.44551  -0.51067 
H  2.98581  3.24265  -0.78666 
C  1.01385  2.73982  -0.31623 
C  0.56758  4.15933  -0.46631 
H  -0.14345  4.21923  -1.31676 
H  1.41543  4.84995  -0.66515 
H  0.06089  4.47431  0.46704 
N  2.08784  -0.02071  0.0 
N  5.45655  -3.67378  0.78114 
O  0.25771  -1.82002  0.0 
O  0.05444  1.84072  0.0 
O  5.67769  -4.8321  0.92379 
O  6.32334  -2.87047  0.99926 
N  -1.94679  0.0  -0.05321 
N  -0.05321  0.0  -1.94679 
O  -3.44253  -2.18533  -2.47172 
O  -3.0246  -0.25957  -4.10299 
C  -2.94917  0.15345  1.00643 
H  -2.57685  0.18763  2.02771 
C  -4.0806  -0.85676  0.89964 
H  -4.77671  -0.96919  1.72513 
C  -4.26796  -1.59444  -0.20404 
H  -5.09858  -2.28964  -0.25453 
C  -3.33936  -1.46649  -1.33984 
C  -2.27805  -0.66388  -1.25532 
C  -1.28152  -0.59927  -2.3716 
C  -1.71004  -0.2541  -3.77113 
C  -0.75868  0.01946  -4.67414 
H  -1.03043  0.19144  -5.71124 
C  0.65601  0.18336  -4.23622 
H  1.41576  0.37194  -4.98674 
C  0.97547  0.20345  -2.91974 
H  1.99387  0.40892  -2.64216 
C  -4.53662  -2.69618  -3.10205 
H  -5.4088  -2.8297  -2.43067 
H  -4.24335  -3.68853  -3.50677 
C  -4.88216  -1.74212  -4.25145 
H  -5.44838  -0.87816  -3.83715 
H  -5.53358  -2.28416  -4.96478 
C  -3.63798  -1.15552  -4.95914 
H  -2.93915  -1.96086  -5.27627 
H  -3.97235  -0.58715  -5.85022 
N  0.9035  -1.6021  3.68348 
N  0.0  0.0  1.91 
N  1.05033  -1.35604  5.92536 
N  -0.77056  1.09923  5.26999 
N  -1.22762  1.82661  3.16438 
C  0.67722  -1.25654  2.32652 
C  -0.44955  0.74267  3.0747 
C  -0.17604  0.31704  4.37846 
C  0.59232  -0.90341  4.66439 
C  -1.43009  2.00918  4.49566 
H  1.70086  -1.14238  2.08243 
H  0.84457  -0.85461  6.78738 
H  1.68523  -2.17888  5.95218 
H  -2.07335  2.76591  4.91783 
H  -1.6564  2.37823  2.38592 
