34

Pd  0.0  0.0  0.0 
P  1.4890637184150322  -1.5082404458507273  2.904292043407548e-15 
N  1.4890637184150313  1.5082404458507273  -2.957284858980827e-16 
H  1.0456053213545842  2.3101278692567555  -0.08456122196267615 
H  1.9845947437406795  1.5719537949154363  0.7723893720725894 
C  0.8482478713568373  -3.0313147251008634  -0.7197604254512724 
H  0.27895879136690427  -2.8156836525522446  -1.4866594891850649 
H  0.322190575994044  -3.513922134948855  -0.04709237213268648 
H  1.5953974454625823  -3.592873392573321  -1.0144086681071296 
C  2.504882996460129  -2.060111261468928  1.388957989724992 
H  2.8959239716343848  -1.2818319968932477  1.8385466929486343 
H  3.22248764392382  -2.6401007236309693  1.0583597384901922 
H  1.9482228562835142  -2.5592995156171767  2.0229633802848808 
C  2.704818325547694  -1.0154243852253624  -1.2593140893460422 
H  3.390653347701039  -1.726323103629124  -1.326733185749237 
H  2.2457562789135883  -0.9630161666170782  -2.1347361509611504 
C  3.405582725072112  0.303565962416389  -1.0074296730216301 
H  3.8162694829688233  0.2846409958578242  -0.10732718856273797 
H  4.1337956746061675  0.41453281485721294  -1.6700082478263911 
C  2.474353807972696  1.486881755935851  -1.0978652675918925 
H  3.0063703954795846  2.3211825953422878  -1.0728988905369625 
H  1.9949332362165655  1.4571642462885614  -1.9637398052689188 
Br  -1.654629867976521  1.654629867976521  0.0 
C  -1.35204078  -1.31992066  -0.4819701 
C  -1.63807002  -1.59921746  -1.81393823 
H  -1.15796809  -1.15933936  -2.50351594 
C  -2.63068217  -2.5263265  -2.14228996 
H  -2.83682226  -2.69439953  -3.05388981 
C  -3.31015444  -3.19615732  -1.16198741 
H  -3.99601236  -3.81199015  -1.38686634 
C  -2.99747104  -2.9701089  0.1242356 
H  -3.43865917  -3.46858118  0.80170842 
C  -2.03898543  -2.01594063  0.49125628 
H  -1.86191301  -1.84921651  1.41015686 
