78

Pd  0.0  0.0  0.0 
P  1.5724445483068712  -1.4210975133677493  -1.0760152486229285e-15 
C  2.7846964496419027  -0.41444314479465916  -1.0249560575665468 
C  2.67846574728343  1.0272913637293901  -0.5137126861597855 
C  2.2152523900380445  -0.3972385337317222  -2.469401042444864 
N  1.572444548306871  1.4210975133677497  -3.9607885702723904e-16 
C  4.196567753314184  -0.9651056099941849  -1.0410299894816457 
C  1.37889332230323  -2.9704448518077324  -0.9121437758278272 
C  0.24186584496561925  -3.196009021039411  -1.7295875300630312 
C  0.12526668616570014  -4.312495757575845  -2.466947729223103 
C  1.089960462878917  -5.32428926328154  -2.432423115067311 
C  2.2421432315271157  -5.1078350952132014  -1.6341435207170387 
C  2.3335954169084654  -3.966083509036073  -0.8750820059166928 
C  2.358872186501429  -1.966034333477152  1.5562177103390313 
C  1.797046242579469  -3.045211452270079  2.1964372156729586 
C  2.333348073430926  -3.4806594839350695  3.425366252657802 
C  3.3901564592905347  -2.782305478904044  4.003821202704871 
C  3.9280029049218  -1.7109140081021397  3.3628096449192375 
C  3.3998717461507133  -1.2788105358043216  2.1603825708879967 
C  3.8945676265691285  1.8849655335416848  -0.6814567699141324 
C  4.766412135680298  2.151437697793516  0.41571502958295525 
C  5.87736507556309  2.8729394317386854  0.2727034801196559 
C  6.281919412768424  3.374752757912214  -0.9474580763649949 
C  5.471851875192304  3.122373690588361  -2.027250566125017 
C  4.340708549732062  2.3852134111945626  -1.9204269743917084 
C  1.375786758732587  2.834016796606549  0.35840170598326804 
C  1.5893993568349403  3.2081067270998878  1.6847463828434983 
C  1.3049572904096394  4.531235184023325  2.009151202978964 
C  0.7823839432432955  5.427009128475072  1.1155564361675514 
C  0.6058564694713782  4.996262062040939  -0.16413749042666337 
C  0.8792565993913661  3.6970256108951634  -0.5798805155922916 
C  2.0669328355974415  2.283647896764838  2.7358229821818028 
C  0.4303002960883753  6.862845051630315  1.5053237349280233 
C  0.6187129321219982  3.2520007417000376  -2.0084684769176504 
H  1.6558885705876063  -0.17044107474792333  -2.4328774871917656 
H  2.5510218089560515  -0.056242050069169505  -2.8313477725713145 
H  2.1955824873925702  -0.9556671760557468  -2.6957077289613336 
H  4.419540778676062  -0.9750850624009316  -0.48868623737555483 
H  4.18084932207874  -1.5315633002144098  -1.2644870683801739 
H  4.540778713315837  -0.6072681708202234  -1.39082054415709 
H  -0.1891440166169598  -2.7671676929339455  -1.7460351599015254 
H  -0.35685618351913595  -4.3909332356176165  -2.826493206965916 
H  1.0077691136964142  -5.838608360405215  -2.723774069164702 
H  2.6961162984583322  -5.501033475158155  -1.6396004896318634 
H  2.8057526437262243  -3.8968213232436693  -0.5076371627319883 
H  1.3347245629694002  -3.3251647322228295  1.9370725966397693 
H  2.094543053335567  -3.9574394751928996  3.712185328581015 
H  3.6348409943156716  -2.973638862040882  4.509080645780387 
H  4.388408424698159  -1.4055422085473128  3.6142567395457172 
H  3.6153403015092813  -0.7720261995955571  1.9009145223249166 
H  4.618456297305407  1.933132537815575  0.9576916407183473 
H  6.238337847838965  2.960581760170352  0.7461338762103179 
H  6.780109015415608  3.7171069246203365  -0.9950379497553626 
H  5.618230919858637  3.353382809886597  -2.557747929062509 
H  4.017018468581615  2.2483964382767545  -2.410956940129203 
H  1.4150854570143068  4.721774937596118  2.571925002323536 
H  0.39771360224939767  5.3808421699216655  -0.5708451710119536 
H  2.1571944588601237  1.7447545148566934  2.4908464479962014 
H  2.577342894434674  2.4856406821295374  2.966184169230299 
H  1.6545665482197636  2.24805680641092  3.171458758171092 
H  0.2103476084178979  7.165255365459912  1.0324950056020368 
H  0.01539006066253057  6.855236995252553  1.9421419396963562 
H  0.924358634526274  7.144750885840533  1.711660229175229 
H  0.42658727668471497  3.7131953211253546  -2.3335123853846533 
H  1.1199921931278793  3.0386787935941784  -2.2539769471212776 
H  0.19703512050411498  2.826383245848801  -1.9990620740728924 
Br  -1.654629867976521  1.654629867976521  0.0 
C  -1.35204078  -1.31992066  -0.4819701 
C  -1.63807002  -1.59921746  -1.81393823 
H  -1.15796809  -1.15933936  -2.50351594 
C  -2.63068217  -2.5263265  -2.14228996 
H  -2.83682226  -2.69439953  -3.05388981 
C  -3.31015444  -3.19615732  -1.16198741 
H  -3.99601236  -3.81199015  -1.38686634 
C  -2.99747104  -2.9701089  0.1242356 
H  -3.43865917  -3.46858118  0.80170842 
C  -2.03898543  -2.01594063  0.49125628 
H  -1.86191301  -1.84921651  1.41015686 
