93

Co  0.0  0.0  0.0 
C  2.6141882253086983  1.4346542457221005  0.01833836897743484 
C  3.322807192551868  0.28026261300815963  0.46519326442256886 
H  4.190892806914755  0.3655247042827899  0.6744639788756481 
C  2.903073370199727  -1.0092922855119144  0.4274236724662196 
C  0.5961741911498956  2.6221090188296268  -0.5626722847651303 
C  0.8784113375767348  3.9426012847874636  -0.2109977495448766 
H  1.5677630018135182  4.128937236914666  0.3584405227541007 
C  0.08491605287352688  4.960347978045082  -0.6959183941012551 
H  0.2793426803539205  5.825566810541579  -0.465688881614262 
C  -0.979874204689076  4.689630031854387  -1.5244148099113135 
H  -1.5423251012499049  5.433299372360278  -1.7560314564405852 
C  -1.2579279182783454  3.388118640195453  -1.8762484065749185 
H  -1.9733620976720432  3.2556959270942296  -2.513170269922494 
C  -0.47224820647831156  2.3596800586257536  -1.3911851278114737 
H  -0.7089053046943103  1.458255347594412  -1.5643773568693915 
C  3.507839372709412  2.514314132624876  -0.5003407277312034 
C  3.532322670701318  2.835641587406681  -1.8437193284700042 
H  2.9306131492740866  2.4725621931996917  -2.437047985561585 
C  4.45766402843657  3.744389400733802  -2.336287246058912 
H  4.374942646200724  3.9889812796772213  -3.3428896927457386 
C  5.3495775356524735  4.320774534855699  -1.4801776194285914 
H  5.882789060261903  4.880485990523869  -1.6821914714721955 
C  5.320341145500015  4.034622439760087  -0.13972343074354554 
H  5.893929976356228  4.377651111171966  0.5423679734732032 
C  4.406969259084054  3.130977961018395  0.35812063434574404 
H  4.431830247569575  2.921317145490219  1.2600280207683232 
C  3.845252651267371  -2.1121482860251724  0.7223576726405042 
C  5.18745225039066  -2.057194908453088  0.3583790161141482 
H  5.4665221090563225  -1.3723589769134188  -0.15755530224094838 
C  6.054860926854795  -3.0838976201216517  0.6783234798060865 
H  6.9464842464946575  -3.094118713833646  0.3110501822226917 
C  5.62623878741681  -4.182090009327091  1.3628160202145705 
H  6.263560969861603  -4.885091973737774  1.6485083088723522 
C  4.296996901116925  -4.281534177313802  1.709277049999026 
H  4.0516408985436385  -5.076797428770201  2.165313597749593 
C  3.429429512782786  -3.2562473629874424  1.389339313763346 
H  2.5562272195372744  -3.3333730220621507  1.7253378521278757 
S  1.3040452781633003  -1.4984878753263233  -9.889956355598847e-16 
N  1.3040452781633003  1.4984878753263238  -6.276010478580127e-16 
N  -1.2869343417595163  1.2869343417595163  1.111141698608915e-16 
C  -2.0439177087334888  2.12488412290337  -0.0292464768086141 
C  -3.039996871823051  3.1451029113221427  -0.020578454189337805 
C  -3.6109367531889642  3.5027056090064184  1.1840803574560206 
H  -3.305797232175471  3.124913133116942  1.9890045078434693 
C  -4.643414430106806  4.432341170224364  1.184922963730087 
H  -5.039957029680098  4.699271999177814  1.9939093599555615 
C  -5.071384752931329  4.950007774944959  0.015124763552584963 
H  -5.787790156119229  5.557122465825726  0.017435694086917253 
C  -4.496572097830042  4.616161907461095  -1.1603053867750972 
H  -4.80635487313518  5.004761149933738  -1.9581454715501954 
C  -3.4631808618846245  3.7142765269628164  -1.2002594092844392 
H  -3.053279742202985  3.4910337389318853  -2.015942448016958 
N  -1.2869343417595165  -1.2869343417595165  0.0 
C  -2.3051494568881283  -2.23726315694293  0.07385379039504347 
C  -2.1884275628538408  -3.5171584109272898  -0.32351448750514467 
C  -0.9591054018512954  -4.19797983241299  -0.9061009587814852 
C  -0.4799730928276017  -3.492943385099781  -2.1847001838749445 
C  0.16550115286029654  -4.226160439363631  0.14942590515501358 
C  -1.3301494554704514  -5.638956740286581  -1.267626091032242 
C  -3.592502362026554  -1.674827628175318  0.698178051986366 
C  -4.775130049032091  -2.617506975824037  0.6867001843918297 
C  -4.977644809391608  -3.5330143527027387  1.726360150302418 
C  -6.045968471800128  -4.431912198003991  1.6645216828988785 
C  -6.933613300774269  -4.426645474731714  0.5884864189686283 
C  -6.72030872307523  -3.512457843611669  -0.434552833572424 
C  -5.6652100253580935  -2.6064548756626618  -0.40469181980534596 
C  -4.037718528588573  -3.5996884319253084  2.9175547665661057 
C  -8.092708145354086  -5.389327418043691  0.5389816990970715 
C  -5.489295725351981  -1.6359640062248384  -1.5467969469242016 
H  -2.960414187118425  -4.065106423293927  -0.24217004885057314 
H  -2.043398641896208  -5.698199609312231  -1.9343662507141133 
H  -1.6161325459314575  -6.112636009225815  -0.48215745248098396 
H  -0.5137645633561605  -6.124026813389218  -1.6977082949278912 
H  -0.12899977173634802  -4.764604284725822  0.9365547070694772 
H  0.9360913979036234  -4.667715541575645  -0.23348175467252363 
H  0.3792078849059133  -3.361446734113933  0.43466009074945267 
H  0.32279062060356334  -3.9319074654590667  -2.5373850950244483 
H  -0.2790545222439398  -2.5816581430987022  -1.9665326434257464 
H  -1.1646912221354024  -3.5511412180422735  -2.9152267580924884 
H  -3.8091285666149597  -0.8238129182053587  0.2269359582591951 
H  -3.394210912550885  -1.3582422445966913  1.642333296620008 
H  -6.150444648354332  -5.055871381758881  2.4214092541672576 
H  -7.319625991829301  -3.50971088706583  -1.266049084678162 
H  -3.1287882102314892  -3.8686556072928173  2.64944410854201 
H  -4.379125292003778  -4.2372527639482485  3.590241524594312 
H  -3.99512972369107  -2.7452291393554034  3.3435721970056793 
H  -7.8891949849656315  -6.288718160111408  0.823791559585763 
H  -8.881868482153308  -5.065370735926509  1.036993195886617 
H  -8.33192447950328  -5.508777372567098  -0.3617313261449171 
H  -6.17697408533343  -1.801571451640311  -2.2031578135487955 
H  -5.642960358140188  -0.6558150041346005  -1.2401975432529355 
H  -4.622573857008948  -1.7019880223900767  -2.0018511549317433 
