114

Fe  0.0  0.0  0.0 
N  -1.6772829696016183  0.9881520252303242  -0.016665399562710737 
N  -0.965907852343674  -1.6652549867575863  0.016809535532517503 
N  1.662611039926111  -0.9783588777890359  -0.016971057486005463 
N  0.9805797820191816  1.655461839316298  0.0168269215161987 
C  -1.8476174918136192  2.3365834806246304  -0.26062884077061105 
C  -3.2250818394830976  2.7051154102937325  -0.09384410611583474 
C  -3.8914060416362246  1.5716640204427015  0.30082915681156974 
C  -2.933929039107469  0.49957006760826517  0.30443552955723496 
C  -3.2365005564614426  -0.8390608864019675  0.48561164788348105 
C  -2.30632244813892  -1.8427223154179564  0.2790895359847391 
C  -2.6498944871006236  -3.225896699872888  0.19495312156495745 
H  -3.5062689389243196  -3.6040544777151715  0.3661629148626865 
C  -1.5426274928406474  -3.897863276968373  -0.17103968258432256 
H  -1.4718206948319823  -4.829912253577295  -0.3422927192231519 
C  -0.49284938842362225  -2.9253139365184686  -0.25145455606586553 
C  0.8355687125107675  -3.255972129541656  -0.458027929220555 
C  1.8358958969494954  -2.3271891058990626  -0.24459213309860295 
C  3.2116867242203577  -2.6924800058427683  -0.08382457413327062 
H  3.5851474400291474  -3.556880305429776  -0.20840425073213445 
C  3.8716140145009503  -1.5794266156685657  0.27731807381159423 
H  4.796565739980259  -1.5158612780974359  0.4865638943010777 
C  2.9173028540919286  -0.500784337752183  0.2889066634645036 
C  3.2482518981225974  0.823299707972687  0.4705711347076306 
C  2.3257316466239484  1.8328805694230663  0.24269164952307476 
C  2.684306735820847  3.2134804651677227  0.051676432125923585 
H  3.5495321954044363  3.590142895372868  0.16511565708941844 
C  1.5743406999997949  3.872322901449787  -0.313595101774014 
H  1.5090563553018277  4.793126299028441  -0.534242574782346 
C  0.5012197082089904  2.9094464527154673  -0.3046546627072569 
C  -0.8265751062446296  3.250666772662695  -0.4875917938894895 
C  -4.629442682900972  -1.269900188529136  0.8200422656993397 
C  -5.5438943786966535  -1.5191259929321124  -0.1945531189127184 
H  -5.287742377473074  -1.4261161651117353  -1.1040864905918337 
C  -6.835728352784547  -1.9039987450744813  0.12927948915916337 
H  -7.461245128440404  -2.0789982238668516  -0.5625030169766149 
C  -7.218758223992299  -2.035912121443145  1.446799943989975 
H  -8.114944189943811  -2.272329176211488  1.6620626686921798 
C  -6.300316303558726  -1.8244236178909752  2.4497186753214586 
H  -6.5528082921408535  -1.9472393289503285  3.357448264361514 
C  -5.004511829479338  -1.4306183806989532  2.1360932137977198 
H  -4.377467502542146  -1.2713099655318838  2.830712462676441 
C  1.2081230042912694  -4.662720587802125  -0.7856873024387158 
C  1.2364306483898093  -5.638219505700796  0.1916107065964549 
H  0.9938248542304914  -5.41728251430794  1.0839119867000973 
C  1.6180326941284262  -6.947505654591048  -0.11659805222171928 
H  1.634460837388506  -7.613755282462021  0.5610699782111884 
C  1.9710074992997457  -7.264405642927915  -1.40614572264975 
H  2.2424463186784087  -8.149881720962252  -1.6174649185673182 
C  1.9335942923830878  -6.301644705822461  -2.3953740531842307 
H  2.174298931287185  -6.523182293912223  -3.2878621281036784 
C  1.5464934774996029  -5.020448915809034  -2.084087100729731 
H  1.5098374356280608  -4.365026410301747  -2.770271911016916 
C  4.63884457525681  1.2269536343451568  0.8015450370395065 
C  4.9292482686701  1.7855132446641062  2.0465390918736093 
H  4.236698556459052  1.8682663086804294  2.6923991359329267 
C  6.193227104544694  2.2180022260688186  2.3570323984433688 
H  6.376291531831951  2.6041027160832106  3.206121396766062 
C  7.202726314407223  2.0798914516724136  1.4099191057045566 
H  8.08064870745644  2.381847670477909  1.6159169059535443 
C  6.952298305641676  1.5223180689219524  0.19205477612020996 
H  7.652740677030446  1.4285035424145653  -0.44166195790176 
C  5.664622556124452  1.0854163351657848  -0.12244401425283051 
H  5.491166253423698  0.6912245338896219  -0.9687862646811296 
C  -1.1363089818168768  4.672920460408941  -0.8190714524135061 
C  -1.142835362972893  5.6438832055802735  0.1745355996137814 
H  -0.9430222380321225  5.3978306893582975  1.070880368306185 
C  -1.4336892270044599  6.9605591313618325  -0.11831438970699405 
H  -1.4529481076759607  7.610963596643792  0.5742816448301453 
C  -1.6965048293585423  7.32891901949691  -1.4215757648625584 
H  -1.888615602917804  8.235663022831229  -1.6294243951195526 
C  -1.6801413124570246  6.379434912253241  -2.4219384717875556 
H  -1.859096525632419  6.63658225023618  -3.319930191262538 
C  -1.4028930414235772  5.044170134665474  -2.125551191455803 
H  -1.396566348618839  4.392867629251078  -2.8175291314214386 
C  -3.842637983620833  3.9715926328886284  -0.2603472697075552 
C  -4.436354774917174  4.994058166187474  -0.36721117824866356 
C  -5.152782613997288  6.244508278546083  -0.47928953429184773 
H  -5.203627846002286  6.506376610822701  -1.4336124612578822 
H  -4.652161266427612  6.949947314877524  0.003843462280825076 
C  -6.568673021610775  6.153322437468796  0.09167601284312273 
H  -6.520949810147162  5.9346868209344965  1.0562241673021264 
H  -7.014889155452118  7.032535993145372  0.00014986677417242822 
C  -7.384536269957646  5.100357467082059  -0.6193181018549874 
H  -8.285867490274155  5.067879208555639  -0.23484853998325708 
H  -6.951536490120141  4.225789468782545  -0.5134648212678702 
H  -7.442402873561025  5.322130022395183  -1.5722485452228636 
C  -5.273933090671592  1.5580298419928371  0.6362089532566704 
C  -6.4232243128611195  1.6610347781618366  0.9207812107290471 
C  -7.8438357182797676  1.7581911857786316  1.2530228806824923 
H  -8.033104499590207  2.666289081333093  1.5970299743750753 
H  -8.049928164367874  1.113482691293898  1.9750639534786658 
C  -8.765327928166363  1.4775785055203867  0.05381832732364112 
H  -8.523138347033044  2.0777981922718993  -0.6960951839737499 
H  -8.637445369857915  0.5436132004424535  -0.24842839340492237 
C  -10.225736789766287  1.6943532344737209  0.4230994314267513 
H  -10.794311570414916  1.4640225289030377  -0.34135008612275736 
H  -10.365414512457164  2.6342205197757806  0.6630303377369372 
H  -10.457721656816105  1.1247768333765467  1.1865839727064473 
C  0.0019819738778579232  -0.008531741906679768  3.3716300580234755 
N  0.0  0.0  1.8699999999999999 
H  -0.8856108638339306  -0.21056091492905132  3.695377703096967 
H  0.6284183346085791  -0.6504348360801051  3.6909618504354302 
H  0.2552105553474935  0.8695274929158365  3.675219806977179 
O  0.0  0.0  -1.79 
C  0.012515168649840591  -0.0009483891016472956  -2.975585408611196 
C  0.35028793379381395  -1.2180867187621927  -3.721151244468856 
H  0.3851725167548804  -1.9626921711442418  -3.1167618036655305 
H  1.2038434492851897  -1.1068902431943926  -4.143408234695841 
H  -0.31979555006296523  -1.3789899069642775  -4.389283513326427 
C  -0.3495567202432785  1.2201340456375802  -3.7425954573359097 
H  -0.7745266051034227  1.8510000014665025  -3.156601222946172 
H  -0.9523539009580209  0.9843142412972714  -4.452763711204847 
H  0.4444137078839646  1.612159140765396  -4.114042174981211 
