71

Pd  0.0  0.0  0.0 
N  1.9178342317595212  -0.010176513042852942  4.805184028455755e-16 
C  0.23800950382672825  -2.050055086248992  -5.126107871511464e-15 
C  -0.678899846217492  -3.0940150545013436  0.02500836836010986 
C  -0.2212879210077856  -4.407080255021748  0.009968917300481307 
C  1.0965569425382005  -4.681727641744972  0.0022127203222783525 
C  2.0469604395136085  -3.6777600227077034  0.01578043426209239 
C  1.6081214931776084  -2.3451224582263226  0.01323074568425051 
C  2.541581007243831  -1.191996097351643  0.013864350584250151 
C  3.929419171019364  -1.2027904682363646  -0.00344035182167481 
C  4.612887059030948  0.011475637356888502  -0.00932430154783805 
C  3.9109083546404557  1.2126903901870587  -0.027484317114999005 
C  2.5435999302001377  1.20482565837162  0.006775257430018812 
C  1.6083000395518727  2.3423759394634245  0.0023647539102092745 
C  2.054393486619835  3.6560451999011434  0.023946011149786423 
C  1.1311012175852182  4.696163333648076  0.02300590918465015 
C  -0.21344803305785032  4.421522569141329  0.016133277497168284 
C  -0.6750520707942111  3.1004926469232474  -0.008680971433164614 
C  0.2441562644137506  2.060231599291845  4.643854745189912e-15 
H  -1.6110745783217013  -2.9114055694880725  0.051888748000895345 
H  -0.843275904470284  -5.122150629338209  0.004207129108272569 
H  1.3815876844629036  -5.58780776964255  -0.00932018854594065 
H  2.9740381837102827  -3.8861734572140154  0.022921619912030875 
H  4.404994504800979  -2.026440188249116  -0.016043947396900533 
H  5.562574811162853  0.017814627492752866  -0.004028014668826648 
H  4.380407000664244  2.03622967666424  -0.060783341282149024 
H  2.985742154378551  3.8447499015572966  0.041558354461421726 
H  1.4264499094373018  5.598802710447  0.020155352517284373 
H  -0.8390085890705172  5.136380374877056  0.02989984351145722 
H  -1.6064459214112017  2.918411339159296  -0.031112921767997306 
N  -1.937172876261445  -2.220446049250313e-16  -0.06282712373855492 
C  -2.849556472699058  0.04981096645680283  0.9224965492602983 
H  -2.550719214114087  0.04842289372374775  1.8032585239932715 
C  -4.202911727116646  0.10411846928632515  0.6911924410463044 
H  -4.796668015008176  0.14246865599697295  1.4059795938187096 
C  -4.680421680219377  0.10258607499392676  -0.612808247778506 
C  -3.7397205488528718  0.07956555023010407  -1.6266373491981103 
H  -4.0235370210517685  0.09684048753624305  -2.5121272738441585 
C  -2.3909709983988012  0.032354305708205675  -1.3484025409144205 
C  -6.151789121634964  0.09354518322009606  -0.9197420103691476 
H  -6.451025547065976  -0.8115052103626492  -1.0323615325265152 
H  -6.312663271123347  0.5872398724705034  -1.727031773609302 
H  -6.6321746373215955  0.5015773249095767  -0.19492190326204883 
N  -0.0628271237386353  0.0  -1.9371728762613647 
C  0.9212461985546153  -0.051579133164369045  -2.8508068234047226 
H  1.8016235694984875  -0.07916541012311627  -2.5522311176724446 
C  0.6890247419606007  -0.06666973591649061  -4.204956375265951 
H  1.4028995339485633  -0.1079930534725764  -4.7997653822508015 
C  -0.6143264347698835  -0.021224410898553828  -4.681957174583227 
C  -1.6275656911145604  0.0035852056226251365  -3.74066619814173 
H  -2.5131358869368174  0.015052728727016278  -4.024545634144403 
C  -1.3487414306477714  0.010564745193325824  -2.3911695298232942 
C  -0.920506432390836  0.03155871447956193  -6.152553543656767 
H  -1.0106753267726252  0.9463129391393325  -6.429356648684706 
H  -1.7397348201200746  -0.4378525852295169  -6.325243266697825 
H  -0.20589138728170933  -0.3822399921616285  -6.643003763032599 
N  -0.011517351817799337  6.116725689214053e-17  3.084480938846972 
C  0.0  0.0  1.95 
C  0.011346826881866168  1.407087887477541e-16  4.54463387581364 
C  -1.41235610606023  1.3498136541270932e-16  5.007668268415393 
C  0.7121328341391342  1.2508000000000001  4.978754725384834 
H  -1.4519431337879118  1.8563151037644333e-16  5.959092567682386 
H  -1.862103959014746  0.7752999999999998  4.682855447297132 
H  0.6384427587119408  1.3477999999999997  5.916517687323263 
H  0.3144840775358535  2.0003  4.545617372606453 
H  1.6292791710198555  1.2005000000000001  4.73631467764875 
C  0.7121328341391342  -1.2508  4.978754725384834 
H  -1.862103959014746  -0.7753  4.682855447297132 
H  0.6384427587119408  -1.3477999999999999  5.916517687323263 
H  0.3144840775358535  -2.0003  4.545617372606453 
H  1.6292791710198555  -1.2005000000000001  4.73631467764875 
