69

Ni  0.0  0.0  0.0 
P  1.2008831822871033  1.6241858214194582  6.400716221225443e-16 
N  3.73650779090159  1.7211624160447851  1.287324106153431 
N  1.2008831822871033  -1.6241858214194582  2.220446049250313e-16 
C  2.8091120337966142  1.01092262710743  0.5831368498686026 
C  3.199279030788569  -0.314152045148427  0.49702252234807903 
C  4.441639681100063  -0.41576280472011673  1.2306446717526032 
C  4.734221975775224  0.8447097058764903  1.7205784334724072 
C  5.85022128644918  1.133931698708235  2.5153946307391895 
C  6.689340950943979  0.06910212244182135  2.7771815138454263 
C  6.426254278470797  -1.2046515070486525  2.2948720653304067 
C  5.313402280469411  -1.4754653506368138  1.557788133430276 
C  2.543430640578328  -1.4231599531387886  -0.15232246228911978 
C  0.643209258885594  -2.7690741774665995  -0.45741943262792584 
C  1.3106768332549161  -3.770591933962213  -1.0820458974767575 
C  2.6957821635787695  -3.5529098342065284  -1.3466797905336614 
C  3.4438355203416835  -4.542741877312886  -2.0714081823299715 
C  4.748145930670271  -4.25084793651634  -2.4357411904896997 
C  5.313170439934572  -3.0219934799150066  -2.125667008362748 
C  4.62390443600069  -2.085637032922456  -1.3887834626131395 
C  3.289479664975608  -2.3725822142273216  -0.9592672889937877 
C  0.8159253557488813  3.119832152623724  0.9598579133091646 
C  0.8186166934398311  4.388730161595908  0.4002196555677238 
C  0.4250641098725789  5.474913784636161  1.1298699217958053 
C  0.03938823985133055  5.329382462491369  2.449139040496827 
C  0.050676801372139924  4.066735579385513  3.029450126865065 
C  0.41430734523566437  2.9543811700722635  2.2957735116926044 
C  1.4753372933889515  2.2081978737910397  -1.7110592022440585 
C  2.730697469884059  2.167460290610948  -2.323627187521505 
C  2.8600003040362956  2.5103385885592084  -3.6523121237935765 
C  1.7493050319704335  2.917203943055698  -4.383691407011951 
C  0.5093602151456746  2.9507961923417536  -3.778864926095883 
C  0.35850929051842684  2.619185207381122  -2.4573233402225654 
C  3.866749849403091  3.1915768129102924  1.4596790239479023 
H  6.015297004327824  1.9874638264474414  2.845614624506746 
H  7.451456361661938  0.20945935065648835  3.291308190097615 
H  7.02490743956961  -1.8910760345239936  2.479437773918658 
H  5.133053342858037  -2.3427945603998097  1.2758665794576498 
H  -0.27170706290464075  -2.8773287704332704  -0.3340569698466569 
H  0.8862135661017558  -4.560661621849605  -1.3261847782786307 
H  3.0608828304405096  -5.362062938025636  -2.2920592117179828 
H  5.250542765367577  -4.885593097078699  -2.894588182011695 
H  6.174290527017964  -2.82693424111244  -2.4198846981424174 
H  5.021411511262469  -1.273960451576697  -1.1731555599388936 
H  1.0907497295862618  4.5024737662768946  -0.4820697657855651 
H  0.4166068607424771  6.31669931925259  0.7372136488958347 
H  -0.22651901932495022  6.0710085800911955  2.9439120907038543 
H  -0.188728701014103  3.9688360731202543  3.9228918161208046 
H  0.39240308153504566  2.108010473523138  2.68043636050269 
H  3.4784812017351863  1.9088707225571253  -1.8351156772450674 
H  3.6940203018246383  2.471446025179487  -4.06212025182768 
H  1.841196254105005  3.164043898012097  -5.274967486536012 
H  -0.23545740622429245  3.2013878146995314  -4.275733771668712 
H  -0.47954451562505795  2.6662026477459566  -2.0557471478132294 
H  4.787046569049608  3.416208308388528  1.6136552852581854 
H  3.3382643705779844  3.4734640815726125  2.2094903445060297 
H  3.5575099222512185  3.635339524968755  0.6647653790520345 
Br  -1.5839191898578664  1.5839191898578664  0.0 
C  -1.2937473829822488  -1.2398794889499034  -0.459800567 
C  -1.601562203225019  -1.4938654694550033  -1.7919791134 
H  -1.1309417375171225  -1.0428217585005106  -2.480879663 
C  -2.60218398542082  -2.411889969420291  -2.121542410022 
H  -2.8231586547736818  -2.5626138747145775  -3.032700502 
C  -3.2683208079706407  -3.09759503004543  -1.14306436557 
H  -3.9596020908062854  -3.707191723557817  -1.368328076 
C  -2.9347449854640226  -2.896087320001541  0.14198826503 
H  -3.3668350933519986  -3.405606940434718  0.81710224434 
C  -1.9675509241539992  -1.9516175659140573  0.5112421903 
H  -1.7755298364628027  -1.8022912010877177  1.4301324877 
