18

Ru  0.0  0.0  0.0 
C  2.61734  0.65028  0.14138 
H  2.8423  0.54598  1.22446 
H  3.41318  1.25292  -0.34791 
C  2.55031  -0.68928  -0.50502 
H  2.4454  -0.58014  -1.6099 
H  3.48662  -1.24444  -0.25706 
C  1.48018  -2.69254  -0.07701 
H  2.09588  -3.04818  -0.94393 
H  0.4787  -3.12054  -0.26088 
C  1.99902  -3.27969  1.23035 
H  3.03884  -2.93682  1.42317 
H  1.99238  -4.38564  1.17202 
H  1.35005  -2.9593  2.07387 
O  1.38125  1.27536  0.0 
O  1.38125  -1.27536  0.0 
Cl  -1.58392  1.58392  0.0 
Cl  -1.58392  -1.58392  0.0 
