69

Ni  0.0  0.0  0.0 
P  1.2008831822871033  1.6241858214194578  6.413503299530007e-16 
N  3.7365077909015882  1.7211624160447847  1.2873241061534328 
N  1.2008831822871033  -1.6241858214194582  2.220446049250313e-16 
C  2.8091120337966142  1.0109226271074296  0.5831368498686045 
C  3.1992790307885715  -0.3141520451484272  0.49702252234808625 
C  4.441639681100051  -0.41576280472011695  1.230644671752605 
C  4.734221975775226  0.8447097058764899  1.7205784334724161 
C  5.850221286449177  1.1339316987082346  2.5153946307391974 
C  6.689340950943956  0.06910212244182112  2.7771815138454246 
C  6.426254278470786  -1.2046515070486525  2.2948720653304164 
C  5.313402280469411  -1.4754653506368138  1.5577881334302786 
C  2.5434306405783267  -1.4231599531387886  -0.15232246228911628 
C  0.643209258885595  -2.7690741774665995  -0.4574194326279282 
C  1.3106768332549168  -3.770591933962212  -1.0820458974767595 
C  2.6957821635787695  -3.5529098342065284  -1.3466797905336587 
C  3.4438355203416866  -4.542741877312885  -2.071408182329968 
C  4.7481459306702725  -4.250847936516339  -2.4357411904896926 
C  5.313170439934561  -3.0219934799150066  -2.125667008362737 
C  4.623904436000691  -2.085637032922456  -1.3887834626131295 
C  3.289479664975613  -2.3725822142273216  -0.9592672889937854 
C  0.8159253557488806  3.119832152623723  0.9598579133091585 
C  0.8186166934398327  4.388730161595907  0.4002196555677225 
C  0.42506410987257803  5.47491378463616  1.129869921795802 
C  0.039388239851329  5.329382462491368  2.4491390404968243 
C  0.05067680137213548  4.0667355793855124  3.0294501268650587 
C  0.4143073452356605  2.9543811700722626  2.2957735116925946 
C  1.4753372933889581  2.2081978737910397  -1.7110592022440647 
C  2.7306974698840696  2.167460290610948  -2.3236271875215015 
C  2.860000304036303  2.5103385885592076  -3.652312123793572 
C  1.7493050319704315  2.9172039430556973  -4.383691407011951 
C  0.5093602151456809  2.9507961923417527  -3.778864926095884 
C  0.35850929051843083  2.619185207381121  -2.45732334022256 
C  3.8667498494030865  3.1915768129102915  1.459679023947899 
H  6.015297004327818  1.987463826447441  2.8456146245067506 
H  7.451456361661924  0.20945935065648813  3.291308190097622 
H  7.024907439569619  -1.8910760345239936  2.479437773918673 
H  5.13305334285804  -2.3427945603998097  1.2758665794576614 
H  -0.27170706290464386  -2.8773287704332704  -0.334056969846659 
H  0.8862135661017593  -4.560661621849604  -1.3261847782786262 
H  3.0608828304405074  -5.362062938025635  -2.292059211717981 
H  5.250542765367577  -4.885593097078698  -2.8945881820116828 
H  6.1742905270179715  -2.82693424111244  -2.4198846981424067 
H  5.021411511262476  -1.273960451576697  -1.1731555599388857 
H  1.0907497295862636  4.502473766276894  -0.4820697657855662 
H  0.416606860742472  6.3166993192525895  0.7372136488958385 
H  -0.22651901932495133  6.071008580091195  2.943912090703857 
H  -0.18872870101411188  3.9688360731202534  3.9228918161208073 
H  0.3924030815350402  2.108010473523138  2.6804363605026866 
H  3.4784812017351863  1.9088707225571249  -1.8351156772450636 
H  3.694020301824658  2.4714460251794863  -4.062120251827682 
H  1.8411962541050215  3.164043898012096  -5.2749674865359895 
H  -0.23545740622428224  3.2013878146995305  -4.275733771668721 
H  -0.4795445156250562  2.6662026477459557  -2.0557471478132365 
H  4.787046569049599  3.4162083083885273  1.6136552852581854 
H  3.3382643705779835  3.4734640815726117  2.2094903445060305 
H  3.557509922251206  3.635339524968754  0.6647653790520336 
Br  -1.5839191898578664  1.5839191898578664  0.0 
C  -1.2937473829822488  -1.2398794889499034  -0.4598005675376139 
C  -1.601562203225019  -1.4938654694550033  -1.7919791134336869 
H  -1.1309417375171225  -1.0428217585005106  -2.480879663633267 
C  -2.60218398542082  -2.411889969420291  -2.121542410022959 
H  -2.8231586547736818  -2.5626138747145775  -3.03270050271447 
C  -3.2683208079706407  -3.09759503004543  -1.143064365570095 
H  -3.9596020908062854  -3.707191723557817  -1.3683280760515548 
C  -2.9347449854640226  -2.896087320001541  0.14198826503765638 
H  -3.3668350933519986  -3.405606940434718  0.8171022443470677 
C  -1.9675509241539992  -1.9516175659140573  0.5112421903797603 
H  -1.7755298364628027  -1.8022912010877177  1.4301324877763764 
