152

Fe  0.0  0.0  0.0 
S  10.356101729754133  2.1858000000000004  0.34347334028045534 
S  7.7343059299194135  0.40859999999999985  0.7837068169369017 
O  1.2782150396061973  -1.3489000000000004  0.4150532315553357 
N  1.3388089493838986  1.3489000000000004  -0.39626810311906585 
C  12.43514377620328  3.8888999999999996  0.674437823415055 
S  12.162525569191995  4.771699999999999  -0.7107010913534073 
C  12.951290348735535  6.1236999999999995  -0.05957696912199356 
H  13.071635086031296  6.924600000000002  -0.5541216023000453 
C  13.373590449753529  5.996700000000001  1.1629435561372747 
H  13.859308424498987  6.6480999999999995  1.6564737568435421 
C  12.983620215549493  4.749200000000002  1.6310892988658066 
H  13.08994517466547  4.482900000000001  2.539058143633613 
C  11.96170963493623  2.5061999999999998  0.8552683625469499 
C  12.55169155264679  1.4185000000000016  1.3836239878359868 
C  13.970884643725363  1.3754999999999988  1.9398105304948747 
H  14.527599040400993  2.0269000000000013  1.4445947991877097 
H  14.349626693959152  0.47419999999999973  1.7824556786958081 
C  14.049589541705334  1.697099999999999  3.461867408221186 
H  13.651333551950643  0.9740000000000002  4.007211507505768 
H  13.604838563833052  2.5533  3.6764072359493887 
C  15.604502429247663  1.779  3.669433330652535 
H  15.98870875572655  2.4796000000000014  3.075040103324365 
H  16.027764076995123  0.916599999999999  3.4479322752462322 
C  15.872204331195679  2.1477000000000004  5.170864678298312 
H  16.761937255611052  2.5451000000000015  5.262629449377767 
H  15.813523088003008  1.3407000000000018  5.719690371663121 
H  15.194056709975289  2.7950000000000017  5.474417184190007 
C  12.79685041632975  -1.9511000000000003  0.7826237119977129 
H  13.693432729277278  -1.5742000000000012  0.5938562462901378 
H  12.270308282894296  -1.936799999999998  -0.05630191147390334 
C  12.104302747123384  -1.1255999999999986  1.840024192363043 
H  11.289902263758599  -1.6049000000000007  2.138234642708436 
H  12.705198330937378  -1.035499999999999  2.6216702870586137 
C  11.718638123963927  0.23659999999999926  1.360004611050703 
C  10.483230097732504  0.5090000000000003  0.8315131932178539 
C  9.310320202950756  -0.3185000000000002  0.6594053237781616 
C  9.128031242995466  -1.6438999999999986  0.35698850037308244 
H  9.854344663647392  -2.242000000000001  0.23323606613076425 
C  7.792317507757378  -2.0473999999999997  0.24621829907186893 
H  7.535202292596082  -2.9384000000000015  0.04438662134867194 
C  6.901130807063673  -1.0518999999999998  0.45067867299960623 
C  5.446500746114371  -1.0825999999999993  0.4573033075275071 
C  4.774615222436838  -2.2317  0.8822082181517155 
H  5.276101937993895  -2.9815000000000005  1.1754548278845416 
C  3.398742771997953  -2.301400000000001  0.8822193221028833 
H  2.97808611416078  -3.1064000000000007  1.1608037728844374 
C  2.581223661309736  -1.1952999999999996  0.4749676018369687 
C  3.270910549335472  -0.0010000000000012221  0.08669712074759134 
C  4.669649990617673  0.009199999999999875  0.09233497508726668 
H  5.112838685433067  0.8080999999999996  -0.1674335965064277 
C  2.5673187978815037  1.1809000000000012  -0.36423980087885693 
H  3.104735745613531  1.9059999999999988  -0.6638823784448491 
C  0.7764983463587588  2.6045000000000016  -0.9967113025355498 
H  0.1740658441816545  2.358699999999999  -1.7426614887548664 
H  1.5208092050523343  3.1371  -1.3745012383872508 
C  -3.434155285075846e-05  3.481200000000001  3.634085507769891e-05 
C  0.9695740642166364  4.349800000000002  0.809947341805894 
H  1.4038802228014173  4.995000000000001  0.21364183234339446 
H  1.6485135488300044  3.7803000000000004  1.2271316970170334 
H  0.4733585373567675  4.8291  1.5058359829714065 
C  13.662712964037912  -4.208400000000001  0.2805734570666654 
H  13.110393259281993  -4.290399999999998  -0.5268515820164281 
H  13.871856513275223  -5.099499999999999  0.6270791796924553 
H  14.500778260725806  -3.7455  0.05123002793159209 
C  12.935249376895701  -3.4300999999999995  1.3064923765638086 
H  13.430759691572726  -3.4464000000000006  2.161221677599333 
H  12.038851726879493  -3.8232999999999997  1.4567726249180635 
S  -10.356101729754133  2.1858000000000004  -0.3434733402804561 
S  -7.734305929919415  0.40859999999999985  -0.7837068169369013 
O  -1.2782150396061973  -1.3489000000000004  -0.4150532315553357 
N  -1.3388089493838984  1.3489000000000004  0.39626810311906585 
C  -12.43514377620328  3.8888999999999996  -0.674437823415055 
S  -12.162525569191995  4.771699999999999  0.7107010913534073 
C  -12.951290348735537  6.1236999999999995  0.05957696912199367 
H  -13.071635086031296  6.924600000000002  0.5541216023000453 
C  -13.373590449753529  5.996700000000001  -1.1629435561372747 
H  -13.85930842449899  6.6480999999999995  -1.6564737568435413 
C  -12.983620215549493  4.749200000000002  -1.6310892988658066 
H  -13.08994517466547  4.482900000000001  -2.539058143633613 
C  -11.96170963493623  2.5061999999999998  -0.8552683625469499 
C  -12.551691552646792  1.4185000000000016  -1.383623987835986 
C  -13.970884643725363  1.3754999999999988  -1.9398105304948756 
H  -14.527599040400993  2.0269000000000013  -1.4445947991877097 
H  -14.349626693959152  0.47419999999999973  -1.7824556786958072 
C  -14.049589541705334  1.697099999999999  -3.461867408221185 
H  -13.651333551950643  0.9740000000000002  -4.007211507505766 
H  -13.604838563833052  2.5533  -3.6764072359493896 
C  -15.604502429247663  1.779  -3.669433330652535 
H  -15.988708755726552  2.4796000000000014  -3.0750401033243633 
H  -16.027691395284968  0.916599999999999  -3.447863592140528 
C  -15.872204331195679  2.1477000000000004  -5.170864678298312 
H  -16.761937255611056  2.5451000000000015  -5.2626294493777666 
H  -15.81352308800301  1.3407000000000018  -5.71969037166312 
H  -15.19405670997529  2.7950000000000017  -5.474417184190006 
C  -12.79685041632975  -1.9511000000000003  -0.782623711997712 
H  -13.69343272927728  -1.5742000000000012  -0.593856246290136 
H  -12.270308282894295  -1.936799999999998  0.05630191147390168 
C  -12.104302747123384  -1.1255999999999986  -1.8400241923630438 
H  -11.289902263758599  -1.6049000000000007  -2.138234642708437 
H  -12.705198330937382  -1.035499999999999  -2.621670287058613 
C  -11.71863812396393  0.23659999999999926  -1.360004611050702 
C  -10.483230097732504  0.5090000000000003  -0.8315131932178539 
C  -9.310320202950756  -0.3185000000000002  -0.6594053237781625 
C  -9.128031242995467  -1.6438999999999986  -0.35698850037308233 
H  -9.854344663647392  -2.242000000000001  -0.23323606613076414 
C  -7.792317507757378  -2.0473999999999997  -0.24621829907186837 
H  -7.535202292596081  -2.9384000000000015  -0.04438662134867227 
C  -6.901130807063675  -1.0518999999999998  -0.4506786729996057 
C  -5.446500746114371  -1.0825999999999993  -0.4573033075275074 
C  -4.774615222436838  -2.2317  -0.882208218151715 
H  -5.276101937993895  -2.9815000000000005  -1.1754548278845416 
C  -3.3987427719979526  -2.301400000000001  -0.8822193221028833 
H  -2.9780861141607797  -3.1064000000000007  -1.1608037728844374 
C  -2.5812236613097364  -1.1952999999999996  -0.4749676018369681 
C  -3.270910549335471  -0.0010000000000012221  -0.08669712074759212 
C  -4.669649990617673  0.009199999999999875  -0.09233497508726746 
H  -5.112838685433067  0.8080999999999996  0.16743359650642825 
C  -2.5673187978815033  1.1809000000000012  0.3642398008788568 
H  -3.1047357456135307  1.9059999999999988  0.6638823784448484 
C  -0.7764983463587593  2.6045000000000016  0.9967113025355505 
H  -0.17406584418165427  2.358699999999999  1.7426614887548664 
H  -1.5208092050523347  3.1371  1.3745012383872512 
C  -0.9695740642166362  4.349800000000002  -0.809947341805894 
H  -1.4038802228014173  4.995000000000001  -0.21364183234339457 
H  -1.6485135488300042  3.7803000000000004  -1.2271316970170334 
H  -0.47335853735676725  4.8291  -1.5058359829714068 
C  -13.662712964037912  -4.208400000000001  -0.2805734570666653 
H  -13.110393259281997  -4.290399999999998  0.5268515820164308 
H  -13.871856513275223  -5.099499999999999  -0.6270791796924553 
H  -14.500778260725806  -3.7455  -0.05123002793159198 
C  -12.935249376895701  -3.4300999999999995  -1.3064923765638086 
H  -13.430759691572726  -3.4464000000000006  -2.161221677599334 
H  -12.038851726879493  -3.8232999999999997  -1.4567726249180635 
C  0.009511170568017563  -0.011368665152474963  3.0675845103503243 
C  -0.9351350019469375  -0.4417971019886697  4.062583560357708 
C  0.002525120930193858  -0.008280622920163516  5.1188752086926215 
C  0.9468640577786527  0.4335895650287742  4.077804020274705 
O  0.0  0.0  1.79 
O  -2.0794382580097026  -0.939689562452093  4.038795412514036 
O  -0.014148870468513874  -0.0003978801258630593  6.350889766389435 
O  2.069821781148291  0.9679442676104868  4.026011131252284 
O  0.0  0.0  -1.79 
S  -0.726448604961612  -0.03240627438686061  -3.1287587899728955 
C  0.057554532763358826  -1.339824358888451  -4.037390729954972 
H  1.023080801525856  -1.176615931840033  -4.076801181233169 
H  -0.3059854740759113  -1.3687419397211373  -4.947384096384688 
H  -0.11167283118558155  -2.1951510059362764  -3.5906737433282974 
C  -0.07383840811130783  1.3392963264723652  -4.058769653222912 
H  -0.3211526680848864  2.179482358277457  -3.618835182223726 
H  -0.4441817160824891  1.3250416162050143  -4.966192937846001 
H  0.9026443682125735  1.268919209817922  -4.103520396168831 
