68

Pd  0.0  0.0  0.0 
N  1.4123038837304092  -1.5803473478953922  -2.5148165785961312e-15 
P  1.4123038837304103  1.5803473478953922  -8.251442965159443e-17 
C  2.921856377864499  1.0417394455671105  -0.8355279378950408 
C  3.4604853035041723  -0.19300041880425295  -0.4701619189545233 
C  4.648971206273923  -0.6035053314514328  -1.0678515337297467 
H  5.041557394071338  -1.4034987327019066  -0.7992917208269307 
C  5.2596147471887384  0.15570516844141677  -2.0563499873408295 
H  6.039725850094771  -0.14311072834791325  -2.4640464270465965 
C  4.698610480072733  1.3598029590531795  -2.4292124994300988 
H  5.104573489361014  1.874015705435939  -3.0883708237704184 
C  3.539187623767816  1.802445458457876  -1.828958738093702 
H  3.166791302310021  2.612264984338913  -2.0879898274758983 
C  1.9995387361744785  2.286163086116148  1.5787637637578815 
C  1.0710445117588518  2.6823763495065505  2.5453983147338013 
H  0.1677325618014036  2.493955677053402  2.4258001907669855 
C  1.4913058394026844  3.3473634622444797  3.6715642378461766 
H  0.8672305383642653  3.632556360248971  4.300193659335193 
C  2.831200114700903  3.597220002027236  3.8783403258034608 
H  3.1086639320226808  4.043775343762598  4.6462274573826265 
C  3.7563472642843054  3.1890001439946687  2.9489537113498168 
H  4.659976769533776  3.3493478551086016  3.0976718971345902 
C  3.355619449354529  2.54041530512047  1.7917080956207336 
H  3.985545228854828  2.2779004468821906  1.1610272321683086 
C  0.8644798205854284  3.042284992854778  -0.9419631989042634 
C  0.9946411950018159  4.3282248229221345  -0.4282947941367748 
H  1.3452584741419074  4.453986555154407  0.42396348847147247 
C  0.6046734724270033  5.4221717215595335  -1.1806906794999599 
H  0.6760882053661352  6.281095382745598  -0.827833852764301 
C  0.10749983092853599  5.236584445198683  -2.4603024655710914 
H  -0.14960869984783454  5.9705358778028375  -2.970386672325555 
C  -0.005374107338151468  3.979245276916339  -2.9726416988562576 
H  -0.34336689804608334  3.861185294565959  -3.8306179654259687 
C  0.37835863430806427  2.8762701035651568  -2.226632148006134 
H  0.30904683754482987  2.0219467728125755  -2.5902376778888114 
C  2.764260935838069  -1.0976462815659578  0.5132436651541314 
H  2.635014836885407  -0.6215096391992775  1.3472298183373383 
H  3.3283504307442406  -1.8668329490532272  0.6925407713670627 
C  1.5539359272646163  -2.0304416331468413  -1.4373844992305795 
H  2.1132244230046786  -1.3804315000150236  -1.9135564170909165 
C  2.3051218842810495  -3.3532548253124776  -1.3571740472066942 
H  2.0069324363716214  -3.959428184147646  -2.051809579118197 
H  3.2596856183740277  -3.213579822665775  -1.453637984458521 
C  1.9790774928088561  -3.909604194437498  0.019248607454204404 
H  2.7926838864471994  -4.0483256598747985  0.529263412393986 
H  1.5154287528426427  -4.7571146621733895  -0.06015556753575801 
C  0.21767854491626348  -2.1417192774154867  -2.160219413997154 
H  -0.36616605280325  -2.719894253452768  -1.665028872086216 
H  0.3580897191101047  -2.501690343749478  -3.0384044363949867 
H  -0.1811806830097793  -1.2710287600222927  -2.2318291145957354 
C  1.156157625695693  -2.779201303972275  2.2230529675412085 
H  0.6217645167252864  -2.0421222361640092  2.5247203056536365 
H  2.068127543651025  -2.644099523794432  2.4903156617904 
H  0.8260034683428461  -3.5927330580592263  2.6110506575792365 
C  1.081474081811717  -2.872679443570342  0.7161395441189173 
H  0.15462376902988262  -3.098189879914992  0.4886544659360325 
Br  -1.654629867976521  1.654629867976521  0.0 
C  -1.352040782177733  -1.3199206589279684  -0.4819701001757076 
C  -1.6380700204479186  -1.599217458033982  -1.8139382277462257 
H  -1.1579680913617836  -1.159339363685303  -2.503515938957912 
C  -2.63068216563725  -2.52632649780156  -2.142289956238523 
H  -2.8368222554424674  -2.694399528648736  -3.0538898079700485 
C  -3.3101544432602585  -3.1961573187854975  -1.1619874135498987 
H  -3.9960123560788676  -3.811990145619169  -1.3868663427944008 
C  -2.9974710358883443  -2.9701089012107795  0.12423560353005347 
H  -3.438659168087169  -3.468581175155742  0.8017084178296768 
C  -2.0389854250767776  -2.015940632791841  0.4912562833419403 
H  -1.8619130127668426  -1.8492165108145995  1.4101568590026907 
