59

Co  0.0  0.0  0.0 
P  1.3990672151472923  1.4707178272870693  -1.3345451749228272e-15 
O  2.5792496112686663  -2.4062786156798435  1.6455526072135136 
N  1.399067215147293  -1.4707178272870693  1.1102230246251565e-16 
C  1.421545449600179  1.036858474281858  1.7671346527035894 
C  1.5969995205465881  -0.3022480208320977  2.1829139616307565 
C  1.5624150069069476  -0.6214398544321186  3.522328223455456 
C  1.350519859281444  0.36618360606495837  4.475112473266805 
C  1.1771296438649883  1.683717366823388  4.081036335370116 
C  1.2216789989817738  2.005958269331667  2.7411691793768767 
C  0.9000605414039513  3.2102114660628542  -0.0937226238332851 
C  -0.46199656310450643  3.505057667662175  -0.14635466217989507 
C  -0.878776732188038  4.820230278691153  -0.27560428058525244 
C  0.04511187443677356  5.836580544708725  -0.3569356356391059 
C  1.4001710880982616  5.554767665779706  -0.2961634484077644 
C  1.831614742669544  4.24062115912779  -0.15991888159960793 
C  3.1313759951632028  1.4019675285390665  -0.5239237607724215 
C  3.4015470811150994  1.3387012423258666  -1.8808218303946092 
C  4.706368473708096  1.2545746425767976  -2.3376381924553447 
C  5.752766884231351  1.224206652081716  -1.416362944981616 
C  5.4883457094672465  1.275545011214329  -0.07084086221298624 
C  4.1880770587818414  1.3587599744991323  0.38409362310367534 
C  1.8241204430356817  -1.3945571879572132  1.2026806934837513 
C  2.5476723925814477  -3.4213108178485694  0.5857793966535828 
C  2.0075427843446967  -2.674437481835356  -0.6303935952593887 
C  3.085621359170266  -2.2328877889225467  -1.622418869731126 
C  3.6322537086114455  -3.3578750157735406  -2.5076121333558357 
C  4.894875156783773  -2.873009770537882  -3.2241368800170322 
C  2.5860783861876304  -3.8343528363304937  -3.5127585561564105 
H  1.6632784972044377  -1.417817893964364  3.5504080111289262 
H  1.3233242099278075  0.13795619984716323  5.397179053133702 
H  1.028848808733501  2.3624034012758477  4.731089902833564 
H  1.1125747931930827  2.9120919071201445  2.478453910031062 
H  -1.1028225548671533  2.804342798446923  -0.09569678675963822 
H  -1.8064195046860805  5.0211716044280825  -0.3074201609478596 
H  -0.24783914672288043  6.734675111520678  -0.4559836455351534 
H  2.03437877156512  6.26002101265271  -0.34724584220475097 
H  2.7605140429747776  4.04568799473633  -0.11299925550567763 
H  2.6847932011212934  1.353783523636699  -2.504967374562225 
H  4.887569882898571  1.216486299618902  -3.2690934718102693 
H  6.650819326570961  1.1700422171901204  -1.7211601313215623 
H  6.205349510171148  1.2516613441041027  0.552364922597728 
H  4.013241577049033  1.3855251222859193  1.317028841214353 
H  1.9523896589814105  -4.170557729496235  0.8346597543841857 
H  3.455541679077243  -3.7736217135122168  0.4098295133506605 
H  1.3082358083226096  -3.2191714784836627  -1.0927856217719798 
H  3.8380668678810936  -1.8361521716788813  -1.1158227027191585 
H  2.7103130779538613  -1.5261333213321358  -2.204595618314739 
H  3.8798906389544685  -4.1281002921541  -1.9208242463346465 
H  5.5695432657230395  -2.618832910052304  -2.5612810990404666 
H  4.674704056734774  -2.0959051629815653  -3.7811866943226704 
H  5.246026063745294  -3.591374456406193  -3.789170222960091 
H  1.8181758267020127  -4.208373185301642  -3.032207198140485 
H  2.9771308615333583  -4.523702993233233  -4.089450027139084 
H  2.2916670572390925  -3.078983893771837  -4.061827814087127 
N  -1.2869343417595167  1.2869343417595165  4.732123126113268e-17 
N  -2.080831781499328  2.0506030239422675  -0.01044696261282907 
N  -2.852759560511589  2.8829883180686506  0.010446962612829291 
S  -1.5132085117392118  -1.5132085117392118  0.0 
