63

Pd  0.0  0.0  0.0 
P  1.5289596700044097  -1.4677814304248438  2.1436625071510034e-15 
N  1.528959670004412  1.4677814304248438  -2.907736855242865e-16 
C  2.7620512320547808  1.3785488428711976  -0.3389314605030137 
H  3.296674991672684  2.1102826846661085  -0.13099091509618202 
C  3.4297291711683155  0.2668133479428513  -1.0136480001976778 
C  2.9771649668533695  -1.0636867520854942  -1.0092816748145699 
C  3.7189187862432456  -2.039606173947499  -1.6689762885966426 
H  3.424980643123412  -2.9224220061555277  -1.6612844473270783 
C  4.888455086386124  -1.7101921583606894  -2.3349147985081298 
H  5.363298012005265  -2.3666643823764297  -2.7899768328345385 
C  5.347911434341274  -0.41298256329932653  -2.324287437383698 
H  6.134723496132558  -0.19571315697655034  -2.7690615424032794 
C  4.639675613000712  0.5709285218695281  -1.65245333743642 
H  4.969762530267023  1.439550936332813  -1.6264835830749116 
C  1.0945251804948852  -3.1953349220002627  -0.31722840047856116 
C  0.7493759277073927  -3.611575363074082  -1.6128247992520848 
H  0.7861070722229646  -3.0131011851130345  -2.321969193107413 
C  0.3547458554956333  -4.915633436929113  -1.8234784394287098 
H  0.142073609772841  -5.196436328597189  -2.6849605297417276 
C  0.27227435121888854  -5.811957428178411  -0.7732866028134674 
H  -0.0007696050168470858  -6.686899731153512  -0.9286695311800282 
C  0.5999884225067087  -5.404327805948608  0.5066136739896866 
H  0.546310980994873  -6.00560777291518  1.2133830802301084 
C  1.0086753713784313  -4.093269537931817  0.7370134910181418 
H  1.2247837905727699  -3.819035219622249  1.600053321973025 
C  2.186359217082322  -1.4062558870925088  1.6865748317283458 
C  3.5149897852732908  -1.700421166779299  1.9595141500673414 
H  4.081738160083772  -1.9551764268262735  1.2678108486959438 
C  4.006683194021837  -1.6188511438056836  3.2542321398803464 
H  4.898150045915781  -1.8138390889230709  3.430225898954994 
C  3.1591740828851353  -1.2447735743401291  4.2812094417537 
H  3.482800723765263  -1.186027286771249  5.1512464587878 
C  1.8411069422548847  -0.9585303835686045  4.023738300598423 
H  1.28015266027648  -0.7048419172332435  4.719089949462928 
C  1.3412191474966726  -1.0448975036127015  2.733274708230522 
H  0.44442657856009316  -0.8625993463710256  2.5674856550140017 
C  1.1514673095414332  2.6956534266513827  0.6818763587885633 
C  0.7384171851013204  2.591170257821805  2.0289982508723448 
H  0.6968720731571765  1.7595883821424632  2.445126353402301 
C  0.39657231062417897  3.7325479692942087  2.7215406983423422 
H  0.15221351335586264  3.689162170373476  3.617489854628351 
C  0.42526129903239895  4.927603666035301  2.0631388426107717 
H  0.18359807014856377  5.69676968871296  2.5271956962005735 
C  0.7926208002242967  5.041610657492855  0.7516318876986375 
H  0.7936483743168459  5.875397786579079  0.34211634774729077 
C  1.1742395345576204  3.8878722262130414  0.011018423201915203 
C  1.5373742201502312  3.982368226860667  -1.4143086185611993 
H  1.0938503665672803  4.739298633507399  -1.8059991096336152 
H  1.2627323799613728  3.1814975552241167  -1.866733581323099 
H  2.488335792102823  4.0892033126231375  -1.4970854457509835 
Br  -1.654629867976521  1.654629867976521  0.0 
C  -1.35204078  -1.31992066  -0.4819701 
C  -1.63807002  -1.59921746  -1.81393823 
H  -1.15796809  -1.15933936  -2.50351594 
C  -2.63068217  -2.5263265  -2.14228996 
H  -2.83682226  -2.69439953  -3.05388981 
C  -3.31015444  -3.19615732  -1.16198741 
H  -3.99601236  -3.81199015  -1.38686634 
C  -2.99747104  -2.9701089  0.1242356 
H  -3.43865917  -3.46858118  0.80170842 
C  -2.03898543  -2.01594063  0.49125628 
H  -1.86191301  -1.84921651  1.41015686 
