95

Pd  0.0  0.0  0.0 
Cl  4.32948  5.90196  -0.96551 
Cl  -0.86007  -4.3063  0.4913 
N  1.98562  -0.02689  0.0 
N  2.47266  -1.31829  -0.04796 
O  0.09496  1.85848  0.0 
O  0.31942  -1.83158  0.0 
C  2.43205  2.39871  -0.40292 
C  1.08259  2.74855  -0.29451 
C  0.73834  4.10012  -0.44881 
H  -0.29794  4.40246  -0.38245 
C  1.72373  5.07326  -0.6732 
H  1.44892  6.11084  -0.78181 
C  3.06961  4.70362  -0.73678 
C  3.41654  3.37066  -0.60916 
H  4.46376  3.08329  -0.65932 
C  2.91623  1.0396  -0.27974 
H  4.00274  0.79951  -0.20955 
C  1.58364  -2.24403  -0.0805 
C  1.89168  -3.70019  0.06408 
C  0.87429  -4.66079  0.38504 
C  1.24025  -5.97237  0.70709 
H  0.48563  -6.68467  1.02756 
C  2.57043  -6.36545  0.65071 
H  2.83958  -7.38368  0.89937 
C  3.56341  -5.45091  0.27506 
H  4.58749  -5.76194  0.22178 
C  3.22001  -4.12205  0.00864 
H  4.00751  -3.41863  -0.22889 
C  1.72562  -0.14493  -2.61406 
H  2.70813  -0.24256  -2.20326 
C  1.78055  -0.19889  -3.95422 
H  2.74195  -0.30268  -4.44908 
C  0.58525  -0.25621  -6.14164 
H  1.5287  -0.34542  -6.66437 
C  -0.61516  -0.25426  -6.85038 
H  -0.60477  -0.34289  -7.93088 
C  -5.45862  0.11388  -4.18009 
H  -6.37975  0.15827  -4.7471 
C  -5.49957  0.13083  -2.78249 
H  -6.45092  0.18164  -2.26841 
C  -4.26976  0.05575  -0.60053 
H  -5.20177  0.08087  -0.04171 
C  -3.09253  -0.006  0.06247 
H  -3.16758  -0.01138  1.07368 
C  -0.70064  -0.01537  -2.67468 
C  -0.66127  -0.07621  -4.08676 
C  -1.86646  -0.07648  -4.83768 
C  -3.08326  -0.00032  -4.14906 
C  -3.09479  0.02382  -2.74941 
C  -1.87704  -0.00219  -2.02801 
C  0.55506  -0.16353  -4.75111 
C  -4.2989  0.06676  -2.06714 
N  0.46602  0.0  -1.86846 
N  -1.80488  -0.15397  -6.19157 
N  -4.2585  0.0427  -4.8388 
N  -1.82602  0.0  -0.61154 
P  0.0  0.0  2.31 
O  0.30781  4.10902  3.97187 
C  1.50895  0.72913  3.23873 
C  1.51971  2.25985  3.17933 
H  2.44483  2.64229  3.65136 
H  1.54685  2.59855  2.1355 
C  0.31797  2.89272  3.84411 
C  -0.95367  2.1179  4.15745 
H  -1.7715  2.84973  4.35996 
H  -0.91644  1.53537  5.07455 
C  -1.3656  1.22174  2.97932 
C  2.84679  0.13497  2.76682 
H  3.18434  0.57918  1.88697 
H  2.80791  -0.97499  2.68769 
H  3.70542  0.42374  3.4056 
C  1.57436  0.29205  4.73737 
H  2.45429  0.76856  5.22702 
H  1.71343  -0.80554  4.83185 
H  0.74424  0.5405  5.38046 
C  -1.72527  2.28159  1.86987 
H  -2.00147  1.89095  0.90078 
H  -0.9079  3.00033  1.67998 
H  -2.58987  2.91915  2.13806 
C  -2.68949  0.49277  3.36784 
H  -2.74785  0.21845  4.41854 
H  -2.81854  -0.49908  2.90108 
H  -3.57541  1.15319  3.24879 
C  -0.28328  -1.58837  3.2738 
C  -0.88189  -1.72152  4.55504 
H  -1.25669  -0.89147  5.10154 
C  -0.93452  -2.96534  5.22125 
H  -1.40033  -3.06351  6.18862 
C  -0.35226  -4.09762  4.64395 
H  -0.36865  -5.06242  5.12783 
C  0.34558  -3.94827  3.47835 
H  0.86468  -4.79843  3.05408 
C  0.37705  -2.71891  2.84493 
H  0.97248  -2.64326  2.04185 
