44

Co  0.0  0.0  0.0 
C  2.423083578098449  0.7527010619059025  -0.3628093292353066 
C  3.5620961185216093  1.4953026406230128  -0.589984015425628 
H  4.358900554276016  1.0778696547560747  -0.824668832728169 
C  3.498624984620157  2.8664946235440647  -0.46372103140300325 
C  2.295643142910178  3.4550884115321043  -0.11233336619834763 
H  2.2254406041766375  4.378321319457096  -0.026206591733440643 
C  1.2116062773866445  2.6489248407857264  0.10690354079359143 
H  0.40430662513399773  3.0472321850551243  0.3411880280603218 
C  2.3790791151032957  -0.7405738827071802  -0.48239125524131116 
C  3.4012120998911533  -1.4705014207736014  -1.0457126649010255 
H  4.162107011582937  -1.0440814597646197  -1.3674526378833087 
C  3.283487994084649  -2.844783247743115  -1.1261421680288652 
C  2.1243768794960585  -3.433804236051645  -0.6472712570629755 
H  2.004195491606864  -4.354498163399226  -0.7046944766724383 
C  1.1744906356208915  -2.6540189469681135  -0.09468265183693102 
H  0.412757188284265  -3.0677265019628392  0.24331313829803114 
C  5.815720144440878  3.1733086177930208  -0.9574382716007095 
H  5.764532873758904  2.70465910412889  -1.7940876585379757 
H  6.086319875040193  2.564861284846498  -0.26637629982837785 
H  6.458209767616376  3.8839035200960836  -1.027408329001534 
C  5.433004012700701  -3.1259185832625334  -2.1476551140238227 
H  5.258650664622602  -2.528429733424374  -2.878455801169816 
H  6.002210568604893  -3.8394480421434913  -2.4479257053656673 
H  5.867644862981443  -2.6469069634176767  -1.4388509031723091 
N  1.2589358224309952  1.3143365607788586  8.602385641511949e-15 
N  1.2589358224309932  -1.314336560778859  3.1086244689504383e-15 
O  4.526943519370071  3.723000425477247  -0.6361004163207179 
O  4.193647903050449  -3.6699602894266423  -1.6681323247566433 
C  -2.3548454241639103  2.3426488530790195  0.0015299239524605435 
N  -1.2869343417595165  1.2869343417595165  0.0 
H  -2.693375588169933  2.4619669995222804  -0.8954705654495243 
H  -3.0572383823462785  2.091859246622548  0.5932930485126433 
H  -1.9589253610772144  3.1679096565334866  0.3006475929844209 
C  -1.3152186130069785  -1.3152186130069785  0.0 
N  -1.7663523420726233  -1.6939824185252323  1.270434397412418 
C  -2.629522969324304  -2.6497528732799887  1.4124204392187436 
F  -3.0231495590826833  -3.008328950955002  2.623551594112545 
C  -3.2741203057101966  -3.2719134024889454  0.3543714423293562 
F  -4.20781975373131  -4.188418034619545  0.5573223971145529 
C  -2.916789612119673  -2.9119368746016727  -0.8939062690747775 
F  -3.4677614831242067  -3.483542096476337  -1.976804675060944 
C  -1.8958444309651146  -1.9767349727741612  -1.0465240920689889 
F  -1.5613699095596614  -1.5581207419688907  -2.3008652339829054 
