49

Ni  0.0  0.0  0.0 
P  1.3007911765537183  -1.5453291930847608  -6.832390859366844e-15 
N  1.300791176553716  1.5453291930847608  -2.4096942942443347e-15 
C  1.7512782973585894  2.237668178064591  -1.2388898998159892 
C  0.893206830661445  2.6367997208841305  0.9317852531184201 
C  2.4655709070167102  0.8518650594907878  0.5707684862721101 
C  2.751411527817064  -0.4171414756704459  -0.1220963585703409 
C  1.5318979918708928  -2.2278831141004414  1.7043258446729308 
C  1.6578550307741624  -2.8770587230834317  -1.2472922764688372 
C  0.36278729960115297  -3.0200360647325315  2.238243387019588 
C  2.8328233738830653  -3.0043425347658896  1.9201192840922063 
C  0.93890367803557  -4.187524751333067  -0.9531288844585607 
C  3.150504975166492  -3.1147522589615524  -1.495956621535366 
H  2.025623292828315  1.5926325769379346  -1.8780167313133926 
H  1.030876448459721  2.7491491968255217  -1.5913547116063094 
H  2.477737472640575  2.8120880259340613  -1.0325420502457872 
H  0.5951053090262379  2.25532176289433  1.746885805422683 
H  1.638508422271067  3.2016622006108832  1.0953616161453632 
H  0.1915644122593887  3.1386254862098912  0.536608383914083 
H  2.2953625194806526  0.6734988471436405  1.4840527186474037 
H  3.224104324699752  1.4191450500085852  0.49211839653153333 
H  2.9375364473485788  -0.24251459926923205  -1.0332802633709932 
H  3.502597929641313  -0.8298277743916658  0.28749922070528167 
H  1.5852280852793008  -1.4318039482469282  2.2146830458869777 
H  1.3006336195995933  -2.5299876734973124  -2.051799510704579 
H  -0.43591716557941096  -2.5386517691863872  2.1002519477844133 
H  0.31798357096289065  -3.8559185716963076  1.7856256449324324 
H  0.49050469538753694  -3.1761107872442755  3.1674394738637184 
H  3.560015672537262  -2.4908859369415066  1.5803281086202 
H  2.959248325584248  -3.1507528245685172  2.850472232508711 
H  2.7856762121014222  -3.8311462576991944  1.4660579348456908 
H  0.019085928441292088  -4.0067741279384315  -0.8038588617688585 
H  1.033569157670752  -4.764909300847016  -1.700431807608224 
H  1.3185753940954121  -4.587196049697081  -0.18556874265323473 
H  3.571526622035334  -2.291738984061075  -1.6733153320783025 
H  3.5313571179719294  -3.5201198064091863  -0.7255295407569119 
H  3.248134924590288  -3.6983444081525976  -2.2412676548483828 
Br  -1.5839191898578664  1.5839191898578664  0.0 
C  -1.308147545195113  -1.308147545195113  0.0 
C  -2.5481111008682706  -1.081588847540519  0.5874691967409313 
H  -2.7399447190521347  -0.23895174706744582  0.9782000501948406 
C  -3.514692573752534  -2.090568128666735  0.6049610958635798 
H  -4.3504064840370384  -1.9365173000894942  1.0287619599160838 
C  -3.2692344052199704  -3.300825455744854  0.016423527177974795 
H  -3.920165040096455  -3.990528127682657  0.045080339651694334 
C  -2.0939695739763726  -3.5035118821402764  -0.6007549227026172 
H  -1.9425337635726068  -4.327915038834382  -1.0474288760065322 
C  -1.0854604411866036  -2.53050399443706  -0.5998012209931928 
H  -0.24896772463074335  -2.712575304189299  -1.0129111498427692 
