77

Pd  0.0  0.0  0.0 
P  1.6009657858617716  -1.388887523343773  1.7008966598386464e-16 
N  1.6009657858617716  1.388887523343773  -1.7008966598386464e-16 
N  2.98591610100039  -0.43537320505566096  -0.31845958835782456 
C  2.7828043525564663  0.9322763152070668  -0.29630406152632593 
C  1.449057727252656  2.8470637694116983  0.25098636842041266 
H  2.367370197165411  3.239712379060861  0.3007765978166503 
C  0.7830574697553234  3.069386970398198  1.6080696051147072 
H  1.352631726871547  2.6869809072194317  2.323257838011918 
H  -0.08932893460126601  2.60198482365192  1.6289119828769227 
C  0.569318953342256  4.5616927008219745  1.8670072492414387 
H  0.09002660992253975  4.6853601376108704  2.724908470022314 
H  1.4466836620902936  5.015385299689128  1.9359153298754674 
C  -0.24249963344115444  5.184287497352499  0.7343834319542804 
H  -1.1345662228302107  4.758938881952939  0.6984738862393238 
H  -0.37009143295809  6.150413718840539  0.9130793939939214 
C  0.45639637788159115  5.0075941936289725  -0.6090938554519768 
H  1.314585480651501  5.500499197449467  -0.5999215549932113 
H  -0.1089612160774418  5.390267506670496  -1.3257237295422915 
C  0.7233735717648616  3.525809495149394  -0.9086093396894481 
H  -0.13684342638195268  3.063073723391061  -1.0731033871031166 
H  1.2731053228036548  3.4510758840718694  -1.729110954115138 
C  4.235177319494742  -1.1613056675870037  -0.7122965569237983 
H  4.0490864613108934  -2.117659701067099  -0.4861847811429922 
C  4.493133227430142  -1.1685868331457896  -2.219129691079467 
H  4.80056998590833  -0.2740828476761942  -2.512737200376203 
H  3.657021462371993  -1.3841429994789922  -2.7030913274589135 
C  5.561692565583806  -2.2162430583935158  -2.533237800723746 
H  5.208284354928021  -3.1171016081108704  -2.324973569415973 
H  5.771584628415792  -2.188910078319935  -3.500552790869398 
C  6.8387527106449895  -1.9829484974200562  -1.7364373152089798 
H  7.2704330439857126  -1.148450321347723  -2.049719095622076 
H  7.466449919560837  -2.7304428031508405  -1.9011038473863144 
C  6.567147008478946  -1.8755175661947734  -0.2369857496133898 
H  7.408046549868308  -1.6412311754461537  0.230795778881671 
H  6.264406059963037  -2.7539389318520557  0.10334540154452398 
C  5.507058131752516  -0.8217510333394398  0.07467380450765491 
H  5.835104012784517  0.07647597139060222  -0.18365675487632072 
H  5.312762411121964  -0.815248408146105  1.0464053460407485 
C  3.9439856014251697  1.8229139796753244  -0.6359773573655622 
H  3.6217359167384866  2.606209611405701  -1.1266283779814836 
H  4.583210387438742  1.3301163099603586  -1.191895507518452 
H  4.384966296494435  2.1134626441405855  0.18959987109564755 
C  1.4575041653188068  -2.5541080453798326  -1.3705312832829584 
C  0.8283539374693683  -2.098361698493448  -2.5357008452338277 
H  0.4892524119239534  -1.2122498828749717  -2.5766844467605243 
C  0.7002777704548042  -2.9417054288626656  -3.631242203599557 
H  0.28851111216669856  -2.6280490940781154  -4.4275961718647485 
C  1.1765412757060234  -4.245540307183318  -3.5583994713580327 
H  1.0721148698916765  -4.828561823605689  -4.300902809503569 
C  1.8016966904786957  -4.699331812547713  -2.411474636401718 
H  2.1261141688282166  -5.591622400641113  -2.3697619747595704 
C  1.956398644523094  -3.8540197118432102  -1.3174606886764604 
H  2.401227403794906  -4.161936510584694  -0.5367724538621276 
C  1.9737878562425497  -2.3501780508773944  1.4765742939355186 
C  2.9288015731846473  -1.9137825726166384  2.3930074486205877 
H  3.3877010869088067  -1.0936198734388394  2.2503180195057215 
C  3.2062133942887554  -2.683801312093275  3.518713907856985 
H  3.863746138782048  -2.391714121315345  4.137678157957591 
C  2.532987188353666  -3.8719041694270744  3.7434380187964345 
H  2.7495876463461215  -4.405866432414758  4.499562243578684 
C  1.5408249522093986  -4.282078870707759  2.861503536196652 
H  1.0587966673350566  -5.083620400377366  3.028693005948812 
C  1.2510542626999062  -3.5232301538134037  1.735062933071473 
H  0.5633591690736031  -3.7991521910978783  1.1400822295666428 
Br  -1.654629867976521  1.654629867976521  0.0 
C  -1.352040782177733  -1.3199206589279684  -0.4819701001757076 
C  -1.6380700204479186  -1.599217458033982  -1.8139382277462257 
H  -1.1579680913617836  -1.159339363685303  -2.503515938957912 
C  -2.63068216563725  -2.52632649780156  -2.142289956238523 
H  -2.8368222554424674  -2.694399528648736  -3.0538898079700485 
C  -3.3101544432602585  -3.1961573187854975  -1.1619874135498987 
H  -3.9960123560788676  -3.811990145619169  -1.3868663427944008 
C  -2.9974710358883443  -2.9701089012107795  0.12423560353005347 
H  -3.438659168087169  -3.468581175155742  0.8017084178296768 
C  -2.0389854250767776  -2.015940632791841  0.4912562833419403 
H  -1.8619130127668426  -1.8492165108145995  1.4101568590026907 
