52

Fe  0.0  0.0  0.0 
O  1.18447  1.39554  0.0 
O  3.10569  2.44524  -0.42911 
O  2.11356  -4.27044  0.2245 
N  2.47798  1.3009  -0.23555 
O  4.38098  -4.20726  -0.38855 
N  1.18447  -1.39554  0.0 
N  3.21613  -3.62898  -0.17232 
C  2.55512  -1.15236  -0.19198 
N  5.28984  -3.2856  -0.67569 
C  3.13296  0.17107  -0.36392 
C  4.73558  -2.13164  -0.62116 
C  3.42642  -2.24357  -0.30533 
C  5.32479  -0.90113  -0.8638 
H  6.36402  -0.81944  -1.14534 
C  4.52398  0.23807  -0.72167 
H  5.00774  1.18802  -0.92011 
H  0.80077  -2.34678  0.01837 
N  -1.49698  1.1207  0.0 
N  -1.49698  -1.1207  0.0 
C  -1.08124  3.63633  0.07286 
H  -0.83992  3.75205  1.14819 
H  -1.58195  4.54982  -0.30717 
H  -0.1611  3.45879  -0.51699 
C  -2.01002  2.46108  -0.07185 
C  -3.48098  2.56141  -0.43945 
H  -3.93271  3.53084  -0.61792 
C  -4.23107  1.44087  -0.57032 
H  -5.27612  1.51554  -0.85503 
C  -3.64507  0.09056  -0.36401 
H  -4.24779  -0.80314  -0.49608 
C  -2.33646  0.01153  -0.09855 
C  -2.05131  -2.42567  -0.04498 
C  -2.26077  -3.02808  -1.29528 
H  -1.88741  -2.55692  -2.19561 
C  -3.01393  -4.20079  -1.4006 
H  -3.19411  -4.64695  -2.37005 
C  -3.57192  -4.77847  -0.26139 
H  -4.16851  -5.67842  -0.34369 
C  -3.39231  -4.1798  0.98438 
H  -3.86437  -4.63409  1.84556 
C  -2.64413  -2.99123  1.11232 
C  -2.52187  -2.31542  2.4716 
H  -1.86304  -1.42395  2.40319 
C  -1.89263  -3.26734  3.49346 
H  -2.51581  -4.17543  3.63421 
H  -1.79734  -2.76133  4.47649 
H  -0.88329  -3.57553  3.1485 
C  -3.88673  -1.8162  2.96197 
H  -4.31659  -1.09986  2.22968 
H  -3.76628  -1.28375  3.92982 
H  -4.59959  -2.65489  3.10432 
