84

Pd  0.0  0.0  0.0 
P  1.4774834635284466  1.519586330222801  -3.340561402546948e-15 
N  2.831349592325144  1.0219936926994464  -0.9312171832497776 
N  1.4774834635284422  -1.519586330222801  0.0 
N  1.2222612936151114  3.0099822754587247  -0.6802942234129724 
N  2.0300136849062045  1.6920390134221672  1.524390788650221 
C  3.795570571973301  1.819016429026918  -1.485210107557864 
H  3.7596420559902715  2.7675899824548797  -1.5373216751442078 
C  4.813198830424492  1.04616950572786  -1.9466918198161127 
H  5.6018325558300575  1.3524468989522132  -2.3802426652226027 
C  4.48653875033956  -0.2742489891567388  -1.6704858089372814 
H  5.016804375809782  -1.0325441561256667  -1.8800087341656604 
C  3.279639699747249  -0.29631770241969746  -1.0475541725803348 
C  2.652757136952734  -1.4306720893450287  -0.4902810013909656 
H  3.1698041059159996  -2.227768862269017  -0.47703689024396884 
C  1.1787848654310875  -2.7665760486168645  0.6640116713689448 
C  1.5783483298563594  -3.9590406779441873  0.09000968905552317 
H  1.979681971759629  -3.964626425085488  -0.7716067669767149 
C  1.389122352260952  -5.141704021419056  0.7778371713531738 
C  0.7999070086318774  -5.101456801643767  2.0174640749546136 
H  0.6815084559499891  -5.912597863842766  2.4991098160730383 
C  0.37610019144247686  -3.9148898431639325  2.5859826892037114 
C  0.5674081605537119  -2.745103023786999  1.890489671146348 
H  0.2746561929343325  -1.9211309301341042  2.260261133452796 
C  1.8470694059362074  -6.430112271783441  0.1638907515223058 
H  1.6746794635586595  -7.16833032342617  0.7857452811318322 
H  2.8059980320119626  -6.37942136764198  -0.024948154240826748 
H  1.3563276165500284  -6.58696145189225  -0.6710630201616555 
C  -0.23926182804336849  -3.8954950615619697  3.9481280696315952 
H  0.394563121685122  -3.5082427230168336  4.587310281049472 
H  -0.4594330125105095  -4.810986707104759  4.221379119897997 
H  -1.0569560784435104  -3.355881043791902  3.931080938241795 
C  3.329842409150282  2.3789240124777717  1.7442359744115967 
H  3.4985108278826393  2.9097704599328034  0.9128080017364428 
C  4.498974406199732  1.4264840515393273  1.866793488594694 
H  4.474130215740374  0.9914465470211913  2.7436422474254805 
H  5.336969371975135  1.9250655042225153  1.7725198847839592 
H  4.441591624717741  0.7480240525941944  1.1632413681226073 
C  3.3388414807959954  3.3758081051228364  2.874280138389598 
H  2.6602360356049015  4.063464810909858  2.7075939519699053 
H  4.221902489629176  3.795295295367921  2.9322158950416415 
H  3.138511315889634  2.9161466162638363  3.7159338383687257 
C  1.2446393304177044  1.0767674349637617  2.630781369798265 
H  0.5728729291697781  0.4810778337896835  2.1905028883714532 
C  2.0833364715977085  0.1764582502928187  3.5079168310433495 
H  2.5738985853306717  -0.460964475047164  2.9466612459575576 
H  1.5009250573988524  -0.3148450209668918  4.124373780278614 
H  2.7194007997231875  0.7188879652792304  4.019694658607293 
C  0.4472797947436391  2.0748660917064976  3.433928468577826 
H  1.054442511237775  2.607142487534174  3.9868093003527942 
H  -0.18727301624662185  1.5985565589049768  4.008610753868425 
H  -0.04370978001472592  2.665920977590021  2.826158998012029 
C  0.9495076731957329  4.1696501205502425  0.23243367229797912 
H  0.9977842680464999  3.805486279382452  1.1629551858459237 
C  -0.42682246819696057  4.7619038392764725  0.09025092176556238 
H  -0.49409100332884304  5.225865083845333  -0.7709270666429563 
H  -0.5848734063600802  5.398129103857688  0.8163188067834374 
H  -1.0956295601808197  4.047634670481791  0.1293875826023192 
C  2.018584180911062  5.253739660075423  0.14582956764179328 
H  2.905292637280857  4.8382589022908835  0.12029286242964232 
H  1.9548543090244255  5.8386296214570095  0.9303833749134026 
H  1.8828734118312451  5.783886430270364  -0.6668711393885709 
C  0.6363710930299338  3.1233761061170564  -2.0546387115333813 
H  -0.3325907060056825  3.3453174616638326  -1.9457465781731615 
C  0.7169001550804629  1.8745857759738724  -2.897947072399178 
H  1.6565517167905588  1.6538401241287306  -3.067185956132387 
H  0.25914925807924094  2.0262708467169124  -3.751386434983453 
H  0.2870147840817874  1.1324410997746281  -2.424162039509306 
C  1.2724310151202725  4.26206388948656  -2.8251379312056155 
H  1.0507239234730412  5.113119758625883  -2.3920362651769054 
H  0.9310526795477265  4.266616763424947  -3.743631068545598 
H  2.245126977300897  4.146516423371716  -2.838113609683713 
Br  -1.654629867976521  1.654629867976521  0.0 
C  -1.35204078  -1.31992066  -0.4819701 
C  -1.63807002  -1.59921746  -1.81393823 
H  -1.15796809  -1.15933936  -2.50351594 
C  -2.63068217  -2.5263265  -2.14228996 
H  -2.83682226  -2.69439953  -3.05388981 
C  -3.31015444  -3.19615732  -1.16198741 
H  -3.99601236  -3.81199015  -1.38686634 
C  -2.99747104  -2.9701089  0.1242356 
H  -3.43865917  -3.46858118  0.80170842 
C  -2.03898543  -2.01594063  0.49125628 
H  -1.86191301  -1.84921651  1.41015686 
