25

Fe  0.0  0.0  0.0 
O  1.42957  -1.07723  0.0 
O  1.42957  1.07723  0.0 
O  3.21946  -0.00101  -0.71691 
N  2.25482  -0.00035  0.2334 
S  -1.383  1.4946  0.0 
N  -3.99732  0.97595  0.29692 
N  -2.62271  -0.87403  -0.2422 
N  -1.383  -1.4946  0.0 
C  -2.69812  0.35503  0.53765 
C  -1.32799  -2.69253  -0.85296 
C  -0.06447  -3.55551  -0.70668 
C  -0.56957  -5.00639  -0.62875 
C  -1.96785  -4.94501  -1.21373 
C  -2.48691  -3.67092  -0.5758 
H  -4.73273  0.3958  0.7628 
H  -4.02406  1.92759  0.72887 
H  0.5731  -3.34918  0.17792 
H  0.5029  -3.39353  -1.64733 
H  0.10971  -5.75301  -1.09372 
H  -0.68697  -5.27489  0.44575 
H  -2.57797  -5.8461  -0.98714 
H  -1.9108  -4.80563  -2.31409 
H  -3.4635  -3.34307  -0.98653 
H  -2.60278  -3.83711  0.52452 
56

Fe  0.0  0.0  0.0 
O  2.94436  -3.61532  0.06755 
O  1.33158  2.2113  -0.9568 
O  4.99815  -3.46997  0.06576 
N  1.36321  1.28006  0.0 
N  3.93114  -2.92327  0.0781 
N  1.36321  -1.28006  0.0 
H  1.2757  -2.21724  -0.31538 
C  2.64325  -0.73137  0.11038 
N  3.96189  2.78936  0.08564 
H  4.89051  3.24062  0.06901 
H  3.14106  3.40698  0.06247 
C  2.64213  0.66017  0.12456 
C  3.8711  1.36855  0.12606 
C  5.05298  -0.756  0.15414 
H  6.00669  -1.26235  0.16171 
C  3.85461  -1.49611  0.11794 
C  5.06102  0.6361  0.15559 
H  6.00993  1.15413  0.16482 
Si  -2.40713  0.0286  -0.06621 
O  -1.32736  1.2604  0.0 
N  -1.32736  -1.2604  0.0 
C  -1.50308  2.58327  -0.11422 
C  -0.52093  3.52528  0.6643 
C  -2.88303  3.02436  0.48641 
C  -1.54804  2.99886  -1.60837 
C  -3.64342  0.06948  1.33009 
C  -3.37942  0.0267  -1.67515 
C  -1.66166  -2.6978  0.26992 
C  -0.59212  -3.67272  -0.26323 
C  -1.80264  -2.9297  1.77402 
C  -2.94806  -3.10868  -0.47416 
H  -0.90629  4.57137  0.60636 
H  0.4654  3.75422  0.25739 
H  -0.43981  3.24989  1.73315 
H  -3.74976  2.59462  -0.05117 
H  -3.03474  4.12502  0.40007 
H  -2.9423  2.77318  1.56729 
H  -1.69833  4.09685  -1.71279 
H  -0.62963  2.72576  -2.15452 
H  -2.39771  2.52189  -2.13615 
H  -4.41335  0.8356  1.11502 
H  -3.1202  0.30302  2.27673 
H  -4.17658  -0.89422  1.39995 
H  -4.04443  -0.85517  -1.71501 
H  -4.02702  0.92639  -1.72962 
H  -2.69193  0.01474  -2.54447 
H  -0.33773  -3.4244  -1.32327 
H  0.27575  -3.72684  0.41626 
H  -0.92659  -4.72687  -0.23045 
H  -0.85308  -2.65265  2.28231 
H  -2.61558  -2.31633  2.19522 
H  -2.02074  -3.99975  1.97682 
H  -3.82467  -2.53487  -0.13234 
H  -2.81374  -2.96573  -1.57068 
H  -3.17104  -4.18336  -0.29579 
38

Fe  0.0  0.0  0.0 
F  5.0691  -0.91903  -0.09568 
F  2.49214  -4.8362  -0.23046 
N  1.35934  1.31328  0.0 
C  1.20743  2.73627  0.04445 
H  0.23672  3.21435  0.01082 
C  2.28094  3.51951  0.17511 
H  2.15444  4.59571  0.24029 
C  3.63278  2.92681  0.24307 
H  4.48507  3.58536  0.36626 
C  3.81768  1.59849  0.16193 
H  4.83108  1.24284  0.23576 
C  2.63138  0.69672  0.04086 
C  2.63958  -0.66532  -0.00343 
C  3.82778  -1.45252  -0.06104 
C  3.76182  -2.83935  -0.14307 
H  4.66175  -3.43298  -0.22642 
C  2.54683  -3.48162  -0.13335 
C  1.37291  -2.75801  -0.04892 
H  0.5656  -3.45586  -0.07708 
C  1.35934  -1.31328  0.0 
O  -1.16166  1.41458  0.0 
N  -1.16166  -1.41458  0.0 
O  -3.16866  2.41406  -0.00758 
N  -2.4879  1.28682  -0.00799 
O  -6.64535  0.61876  -0.07109 
O  -7.68963  -1.49742  -0.09108 
N  -6.62087  -0.69331  -0.08159 
N  -5.40468  1.08742  -0.04436 
C  -2.54301  -1.18208  -0.01669 
C  -3.3481  -2.36647  -0.03807 
H  -2.88899  -3.35089  -0.04231 
C  -3.13945  0.13416  -0.01778 
C  -4.72866  -2.31892  -0.06106 
H  -5.31841  -3.22682  -0.08184 
C  -5.2854  -1.06657  -0.05135 
C  -4.571  0.09983  -0.03894 
H  -0.96382  -2.38878  0.0086 
41

Fe  0.0  0.0  0.0 
F  5.2318  0.92992  -0.02999 
F  2.74137  4.8179  0.55763 
N  1.35934  -1.31328  0.0 
C  1.38362  -2.73869  -0.28741 
H  0.58346  -3.30984  -0.67303 
C  2.49992  -3.4833  -0.28564 
H  2.44929  -4.54716  -0.50885 
C  3.80503  -2.87494  -0.12754 
H  4.69653  -3.49458  -0.19899 
C  3.90787  -1.55468  -0.03717 
H  4.91088  -1.19064  -0.0348 
C  2.6676  -0.70169  0.00705 
C  2.71394  0.64514  0.02297 
C  3.99452  1.46193  0.00636 
C  3.9447  2.79153  0.09226 
H  4.89048  3.35991  0.13499 
C  2.69797  3.48498  0.31534 
C  1.54018  2.82318  0.35175 
H  0.78444  3.48105  0.7233 
C  1.35934  1.31328  0.0 
F  -5.11446  -0.91031  -0.0751 
F  -2.65872  -4.7741  0.51758 
N  -1.35934  1.31328  0.0 
C  -1.36469  2.73722  -0.2614 
H  -0.54651  3.29438  -0.608 
C  -2.47652  3.48062  -0.28617 
H  -2.42333  4.54674  -0.49445 
C  -3.78244  2.86588  -0.16072 
H  -4.67559  3.48429  -0.22194 
C  -3.88108  1.5435  -0.0994 
H  -4.89171  1.19098  -0.11156 
C  -2.63998  0.68001  -0.05725 
C  -2.64824  -0.67214  -0.05083 
C  -3.86974  -1.43211  -0.03502 
C  -3.84226  -2.80574  0.08645 
H  -4.77216  -3.36452  0.11444 
C  -2.65437  -3.43455  0.29324 
C  -1.45741  -2.71523  0.32974 
H  -0.70399  -3.35249  0.69667 
C  -1.35934  -1.31328  0.0 
52

Fe  0.0  0.0  0.0 
F  5.09396  0.91685  -0.04636 
F  2.58566  4.79458  0.46963 
N  1.35934  -1.31328  0.0 
C  1.37293  -2.76571  -0.09485 
H  0.58104  -3.41673  -0.13386 
C  2.47158  -3.50341  -0.19979 
H  2.38559  -4.58446  -0.27863 
C  3.76896  -2.88194  -0.23437 
H  4.64453  -3.51486  -0.33628 
C  3.87153  -1.55615  -0.18849 
H  4.87206  -1.19463  -0.25261 
C  2.63403  -0.68068  -0.08806 
C  2.63977  0.67458  -0.06696 
C  3.85422  1.44214  -0.04544 
C  3.80408  2.81225  0.10072 
H  4.72958  3.39153  0.14383 
C  2.60732  3.45388  0.2604 
C  1.42593  2.73078  0.26059 
H  0.63464  3.36817  0.56648 
C  1.35934  1.31328  0.0 
N  -1.34901  1.29502  0.0 
N  -1.34901  -1.29502  0.0 
C  -2.60361  0.7256  0.35766 
C  -3.74127  1.62314  0.76558 
C  -3.57984  2.94839  0.70516 
C  -2.36514  3.50137  0.08371 
C  -1.37383  2.69264  -0.32929 
C  -2.68381  -0.73749  0.20449 
C  -1.48099  -2.71065  0.04083 
C  -1.36945  -3.41183  1.27424 
C  -1.47984  -4.81571  1.28144 
C  -1.69632  -5.50814  0.09093 
C  -1.81812  -4.82756  -1.11954 
C  -1.7076  -3.42913  -1.1598 
C  -1.08548  -2.67638  2.5585 
C  -1.78036  -2.71014  -2.47913 
H  -4.6799  1.20216  1.1088 
H  -4.37806  3.61789  1.01007 
H  -2.30659  4.56976  -0.10275 
H  -0.60543  3.15234  -0.92428 
H  -3.36228  -0.98168  -0.63724 
H  -3.14101  -1.12054  1.14133 
H  -1.37428  -5.37069  2.20255 
H  -1.76711  -6.59256  0.10331 
H  -1.97757  -5.391  -2.03074 
H  -0.95645  -3.37596  3.41026 
H  -0.147  -2.09332  2.44579 
H  -1.90972  -1.98258  2.81095 
H  -1.93404  -3.4135  -3.32305 
H  -2.61141  -1.97672  -2.49364 
H  -0.82454  -2.16949  -2.64859 
