69

Pd  0.0  0.0  0.0 
C  1.49953  -2.30138  0.09595 
C  2.52548  -1.37882  0.14473 
C  3.83888  -1.84137  0.38905 
H  4.65835  -1.17094  0.5398 
C  4.10765  -3.22272  0.49505 
C  3.04305  -4.1346  0.34879 
H  3.21326  -5.20105  0.40841 
C  1.74051  -3.67167  0.16394 
H  0.91973  -4.37348  0.08915 
C  4.39915  0.94416  -0.70772 
H  4.94239  0.97234  0.25968 
H  4.76989  1.77382  -1.34009 
H  4.599  0.01789  -1.28549 
C  2.90078  1.08588  -0.46641 
C  2.30504  2.43978  -0.51696 
H  2.98946  3.23985  -0.78504 
C  1.01928  2.73892  -0.30487 
C  0.57344  4.16181  -0.44805 
H  -0.14126  4.22034  -1.29726 
H  1.41828  4.85285  -0.6572 
H  0.0673  4.48043  0.48337 
N  2.08784  -0.02071  0.0 
N  5.43401  -3.68845  0.76133 
O  0.25771  -1.82002  0.0 
O  0.05444  1.84072  0.0 
O  5.65967  -4.85612  0.84664 
O  6.32288  -2.91173  0.94539 
C  -3.97696  -0.78219  0.97938 
H  -4.05865  -1.55852  0.22432 
C  -4.79759  0.20443  3.03133 
C  -1.41961  -0.05379  -2.36659 
C  0.98956  0.03175  -2.86527 
H  2.02018  0.06449  -2.55876 
C  0.71324  0.05845  -4.18276 
H  1.52324  0.11576  -4.90173 
C  -3.76347  1.15092  2.98166 
H  -3.66121  1.88762  3.76438 
C  -1.71586  -0.06257  -3.80531 
H  -2.74164  -0.11206  -4.16146 
C  -0.69228  0.00202  -4.66836 
H  -0.89144  0.00926  -5.73519 
C  -2.35989  -0.0893  -1.42705 
H  -3.41453  -0.11634  -1.68318 
C  -4.91126  -0.75275  2.01664 
H  -5.70456  -1.48825  2.04383 
C  -2.85198  1.13529  1.93216 
H  -2.05614  1.87028  1.91815 
C  -2.92461  0.13664  0.93583 
N  -1.92049  0.0  -0.07951 
N  -0.07951  0.0  -1.92049 
O  -5.67536  0.20361  4.05121 
H  -5.61913  0.85421  4.76494 
C  0.05351  -0.05131  4.4068 
C  -1.23327  -0.61237  4.57869 
H  -1.71587  -1.19404  3.80069 
C  -1.91285  -0.43369  5.78233 
H  -2.89686  -0.86539  5.9177 
C  -0.1151  0.85269  6.64129 
H  0.3001  1.44713  7.44168 
C  0.60922  0.67942  5.46194 
H  1.57507  1.15517  5.35357 
C  0.79359  -0.15186  3.10181 
N  0.0  0.0  1.91 
N  2.06805  -0.33237  3.11956 
N  -1.34743  0.29522  6.77836 
H  -0.93538  -0.00645  2.20848 
H  2.56196  -0.46651  4.01423 
H  2.63881  -0.38452  2.29018 
