41

Fe  0.0  0.0  0.0 
O  0.9129791840866528  -1.0999136078069647  0.5886608322374935 
O  1.5453689365228935  1.186563126557157  -0.5495454734141708 
N  -1.444535060829504  -1.103122576997017  -0.6318687116630829 
N  -1.0138130597800423  1.0164730582468247  0.5927533528397604 
C  0.9008957633580548  -2.404542350374367  0.3714068449081529 
C  1.993266483723818  -3.194664869404366  0.7952569412975166 
C  2.0241372697174076  -4.555873105550011  0.5766292613907804 
C  0.9572717946904059  -5.2079413642250945  -0.02638652134119157 
C  -0.14529654263605646  -4.48631749136442  -0.3706641094045495 
C  -0.20782796119003027  -3.0818550686435797  -0.21671416669999477 
C  -1.4143182222950281  -2.3621911415822896  -0.4692325461212101 
C  -2.6750966146583126  -0.3321641648243887  -0.4835545217192736 
C  -2.3758380172192433  0.5531909311574732  0.7488338001491828 
C  -0.628044314589478  2.1010102560372  1.2081203017760016 
C  0.6398810553595949  2.7083671472554682  1.0942033454912181 
C  1.6932958861127465  2.2153555193824483  0.26530364761981295 
C  2.8989010435496407  2.909863110000876  0.2710439381130656 
C  3.1271679504130794  3.9861762345669467  1.1032988432459956 
C  2.0979547830430314  4.475366109309996  1.898359899115917 
C  0.891355373066583  3.853587996304439  1.887076635769911 
H  2.7511385044379923  -2.7710720480035502  1.2427836576802507 
H  2.7982735021823246  -5.076542153729618  0.8643711002894117 
H  0.9839211980871472  -6.159196737355837  -0.19894240906597416 
H  -0.9171261372407495  -4.941316005699497  -0.7463904178329428 
H  -3.436541730260302  -0.9033034033001601  -0.3435537852955319 
H  -2.8528965725497897  0.20207378691250985  -1.2633715809695527 
H  -2.998424589059679  1.2973220159241996  0.7893361364752511 
H  -2.49029176324558  0.04911080524802117  1.5576744375331173 
H  3.6068280579655823  2.60925352386344  -0.3090556731455625 
H  4.005892701371283  4.412109084465011  1.11410159433807 
H  2.24791201337288  5.241066955790386  2.461322644571612 
H  0.1692605753679894  4.211034515906654  2.432531811527638 
H  -2.2459688697595905  -2.8541712265064523  -0.5211945188492351 
H  -1.2764669622370926  2.5311680825309613  1.7858824451566662 
Cl  1.4075829610590367  1.5166167781734954  3.685037584216155 
Sn  0.0  0.0  2.5599999999999996 
Cl  -2.007330805944438  0.4274108049391316  3.6933129573633834 
Cl  0.5997478448854012  -1.9440275831126268  3.7752354210821015 
S  0.0  0.0  -2.19 
H  -5.551115123125783e-17  4.163336342344337e-17  -3.187886952515164 
