54

Cr  0.0  0.0  0.0 
O  0.12134  -1.93702  0.0 
O  0.30955  1.91109  0.0 
N  1.96911  0.02593  0.0 
N  2.45443  1.30306  0.07635 
N  2.74598  6.33465  0.51226 
H  3.03637  7.31587  0.60062 
C  1.00254  4.5645  0.43046 
H  -0.04628  4.27806  0.48332 
C  1.34023  6.00701  0.59635 
H  0.58578  6.80262  0.76044 
C  3.73836  5.33014  0.31925 
H  4.78563  5.60384  0.27233 
C  3.39372  4.04548  0.19352 
H  4.16213  3.29238  0.04784 
C  1.97072  3.65008  0.24008 
C  1.59528  2.24693  0.0934 
C  2.93684  -1.0112  0.0757 
H  4.00926  -0.70976  0.07148 
C  2.50768  -2.39664  -0.07735 
C  3.53967  -3.33457  -0.1873 
H  4.57766  -3.01369  -0.16319 
C  3.2518  -4.68144  -0.33173 
H  4.0634  -5.39097  -0.41862 
C  1.92196  -5.10194  -0.35998 
H  1.70077  -6.15306  -0.47235 
C  0.88439  -4.167  -0.24583 
H  -0.14221  -4.50794  -0.26969 
C  1.1636  -2.79974  -0.10536 
O  -4.90669  0.02906  -0.11269 
N  -2.37493  -0.16451  -1.36049 
N  -1.94035  0.0  -0.05965 
C  -0.05965  0.0  -1.94035 
C  0.94031  -0.05695  -2.92909 
C  0.58074  -0.21501  -4.30236 
C  -0.78741  -0.28892  -4.65524 
C  -1.76343  -0.2378  -3.68197 
C  -1.39488  -0.1186  -2.34989 
C  -2.81963  -0.45245  1.04424 
C  -4.32364  -0.17948  0.93802 
C  -5.13552  -0.23956  2.18855 
N  1.56278  -0.32199  -5.32351 
O  1.24489  -0.49364  -6.46869 
O  2.72019  -0.2973  -5.04904 
H  -3.35616  -0.25388  -1.63347 
H  1.98288  -0.03373  -2.64156 
H  -1.10245  -0.41443  -5.68176 
H  -2.8084  -0.32737  -3.9554 
H  -2.48872  0.08351  1.96365 
H  -6.21771  -0.08646  1.97755 
H  -4.79032  0.55708  2.88045 
H  -4.98824  -1.23494  2.6502 
S  0.0  0.0  3.4686 
N  0.0  0.0  1.93 
74

Cr  0.0  0.0  0.0 
O  0.36667  1.96844  0.0 
N  2.01806  0.0293  0.0 
N  0.01527  -1.99774  0.0 
C  1.71054  2.25533  -0.22951 
C  3.03054  -0.99526  -0.1977 
H  4.10524  -0.70705  -0.11827 
C  3.06375  4.00187  1.06712 
H  3.63354  3.21331  1.5345 
N  2.54431  1.26596  0.41007 
H  3.50078  1.40216  0.00415 
C  1.19097  -2.876  -0.042 
C  2.03376  3.67783  0.1647 
C  1.59155  6.0462  -0.14528 
H  1.01891  6.83427  -0.61472 
C  1.29317  4.71156  -0.423 
H  0.48554  4.48089  -1.1073 
O  4.35547  5.70219  2.21731 
C  2.62186  -2.40891  -0.10058 
C  3.36908  5.35003  1.35056 
C  2.12881  -5.27594  0.05743 
H  1.9828  -6.35026  0.11643 
C  0.96669  -4.37607  0.03821 
C  2.63547  6.36221  0.72912 
H  2.86365  7.40342  0.92542 
C  3.61625  -3.32327  -0.08215 
H  4.6515  -2.99911  -0.13065 
C  -0.25517  -4.88892  0.13728 
H  -0.4296  -5.9621  0.20012 
C  -1.40666  -4.00985  0.21117 
H  -2.40162  -4.43506  0.32955 
C  -1.26116  -2.68742  0.17758 
H  -2.20677  -2.19532  0.30912 
C  5.14793  4.8154  2.91862 
H  4.50839  4.15158  3.53947 
H  5.82491  5.3782  3.5904 
H  5.75699  4.20714  2.21548 
C  3.35944  -4.77699  -0.00691 
H  4.20506  -5.45724  0.00307 
S  0.54257  0.0  -1.91044 
S  -1.90257  0.0  -0.56956 
N  -1.8016  0.34491  -3.28092 
C  -1.19582  -0.43652  -2.18888 
C  -1.09351  0.13124  -4.55669 
H  -0.16149  0.73814  -4.56074 
H  -1.69879  0.47684  -5.42101 
H  -0.8191  -0.9375  -4.70365 
C  -3.26762  0.12765  -3.38872 
H  -3.68569  0.93884  -4.02207 
H  -3.74359  0.27658  -2.40199 
C  -3.74583  -1.22505  -3.90506 
C  -4.67915  -1.2486  -4.95829 
H  -5.01464  -0.32765  -5.41669 
C  -5.22398  -2.45522  -5.40426 
H  -5.95938  -2.45286  -6.19839 
C  -4.83637  -3.65953  -4.81696 
H  -5.26731  -4.59102  -5.16182 
C  -3.9026  -3.65804  -3.77995 
H  -3.60733  -4.59548  -3.32378 
C  -3.3647  -2.44995  -3.3167 
H  -2.66647  -2.48871  -2.49734 
O  0.0  0.0  1.85 
C  -0.50938  0.55969  4.09619 
H  0.04259  1.52462  4.15735 
H  -1.27288  0.51448  4.90235 
C  -1.06653  0.39912  2.69335 
H  -1.82993  -0.4093  2.67412 
H  -1.52586  1.35226  2.35402 
C  0.4768  -0.55755  4.10851 
H  -0.06876  -1.52494  4.16497 
H  1.23828  -0.50687  4.91796 
C  1.05071  -0.40056  2.72002 
H  1.81484  0.40614  2.72799 
H  1.52074  -1.35312  2.39771 
89

Cr  0.0  0.0  0.0 
N  0.36762  1.98881  0.0 
N  -0.61944  2.94733  -0.07756 
H  -1.07971  3.23821  0.79872 
C  -1.00105  3.44827  -1.27174 
O  -0.42309  3.08858  -2.29013 
C  -2.11862  4.41089  -1.37012 
N  -2.65551  4.85963  -0.28901 
O  -3.66656  5.70132  -0.30823 
H  -4.07962  5.96998  0.52337 
C  -2.63585  4.84012  -2.7229 
H  -3.72951  4.65917  -2.77663 
H  -2.16085  4.26932  -3.54942 
H  -2.42641  5.91914  -2.87383 
C  1.75126  2.28864  -0.09079 
N  2.23157  3.62332  -0.19472 
H  1.57378  4.41813  -0.20559 
H  3.23582  3.83092  -0.26852 
C  2.53682  1.20581  -0.08505 
N  1.84948  -0.02363  0.0 
C  2.5099  -1.24968  -0.07322 
C  3.84741  -1.30382  -0.19343 
H  4.36322  -2.25532  -0.26303 
C  4.62849  -0.033  -0.24596 
H  5.70821  -0.0865  -0.34789 
C  4.01585  1.17028  -0.18628 
H  4.61419  2.07237  -0.24146 
C  1.57768  -2.37974  -0.02691 
N  0.1829  -1.96518  0.0 
C  -0.81833  -2.99983  -0.05076 
H  -1.87401  -2.81181  -0.04314 
C  -0.4718  -4.29974  -0.13527 
H  -1.24519  -5.05992  -0.1836 
C  0.9426  -4.72925  -0.18157 
H  1.183  -5.78427  -0.26343 
C  1.92597  -3.83042  -0.13499 
H  2.96172  -4.14944  -0.17949 
S  -3.02297  0.57813  -1.30604 
N  -1.99332  0.0  -0.00668 
H  -2.39372  -0.91067  0.25954 
H  -2.24828  0.69733  0.72724 
N  -0.00668  0.0  -1.99332 
H  0.7729  0.60568  -2.337 
H  0.36102  -0.96113  -2.174 
C  -2.33771  -0.57435  -2.49792 
H  -2.14766  -1.60412  -2.12093 
H  -3.0659  -0.67049  -3.33038 
C  -1.09631  0.10301  -2.97379 
H  -1.33534  1.15136  -3.23494 
H  -0.76663  -0.3686  -3.92704 
Se  0.0  0.0  2.38 
C  0.04138  0.03164  4.31166 
C  -0.14783  -1.17259  5.04573 
C  -0.15073  -1.12147  6.46594 
C  0.07649  0.09021  7.13145 
C  0.28571  1.24487  6.39034 
C  0.24097  1.25494  4.99652 
C  -0.36433  -2.51781  4.34116 
C  -1.79606  -2.99886  4.56095 
C  0.65109  -3.57503  4.79091 
C  0.08621  0.24291  8.64154 
C  -1.32108  0.07781  9.2033 
C  1.09853  -0.68201  9.30956 
C  0.40526  2.60393  4.29859 
C  1.81785  3.14741  4.50697 
C  -0.62417  3.61986  4.81818 
H  -0.30866  -2.02271  7.04101 
H  0.46052  2.16802  6.91532 
H  -0.23735  -2.42633  3.24708 
H  -2.50428  -2.22825  4.18539 
H  -1.99234  -3.17996  5.63737 
H  -1.97072  -3.93737  3.99318 
H  1.68615  -3.21841  4.60342 
H  0.49405  -4.51458  4.2179 
H  0.53754  -3.80773  5.86947 
H  0.3944  1.2821  8.88902 
H  -2.01596  0.76441  8.66828 
H  -1.32401  0.36225  10.2769 
H  -1.68705  -0.96321  9.09174 
H  2.09872  -0.54459  8.84621 
H  0.792  -1.74421  9.21285 
H  1.16998  -0.42139  10.38711 
H  0.24807  2.50517  3.20719 
H  2.56542  2.43577  4.1016 
H  2.02289  3.31669  5.58546 
H  1.9212  4.11794  3.97428 
H  -1.65973  3.24019  4.69138 
H  -0.51928  4.58152  4.28001 
H  -0.47104  3.84524  5.89905 
100

Cr  0.0  0.0  0.0 
O  1.83263  -3.61822  0.20409 
N  1.85531  -0.01842  0.0 
N  0.23753  -1.98539  0.0 
C  -1.7135  -3.37255  -0.68871 
H  -2.33546  -2.47798  -0.56521 
C  -2.55661  -4.57893  -0.25595 
H  -3.46673  -4.65854  -0.88829 
H  -2.88922  -4.44773  0.7972 
H  -1.97844  -5.52362  -0.3332 
C  -1.35647  -3.45209  -2.18258 
H  -2.28715  -3.48812  -2.78914 
H  -0.76482  -4.3536  -2.43102 
H  -0.78433  -2.55479  -2.48984 
C  -0.4969  -3.18579  0.24541 
H  -0.84091  -3.12266  1.30452 
C  0.62358  -4.2874  0.14366 
H  0.50006  -5.04633  0.94464 
H  0.61854  -4.80897  -0.83355 
C  1.5954  -2.29847  0.10735 
C  2.46312  -1.29446  0.10824 
C  3.94796  -1.34009  0.14158 
H  4.47006  -2.28558  0.1093 
C  4.61733  -0.15822  0.14496 
H  5.70017  -0.16604  0.11366 
O  1.96745  3.55661  -0.35032 
N  0.30716  2.00381  0.0 
C  -1.60036  3.5069  0.5999 
H  -2.25437  2.60807  0.52551 
C  -2.42022  4.71961  0.16795 
H  -3.3112  4.82285  0.82852 
H  -2.77129  4.58988  -0.87406 
H  -1.81219  5.64546  0.24931 
C  -1.20258  3.70197  2.06599 
H  -2.10636  3.71782  2.70573 
H  -0.65836  4.63448  2.28875 
H  -0.51019  2.90586  2.32958 
C  -0.37258  3.24458  -0.32265 
H  -0.6814  3.1635  -1.38416 
C  0.76758  4.28305  -0.19531 
H  0.65976  5.10395  -0.93051 
H  0.83017  4.76338  0.80456 
C  1.66447  2.38811  0.36807 
C  2.5535  1.19001  0.18621 
C  3.89964  1.16354  0.22666 
H  4.46532  2.08258  0.3352 
C  -1.77292  0.13869  -2.96004 
C  2.44719  1.40893  -3.00128 
C  -4.79049  0.15515  -0.63798 
C  -5.11055  -1.25801  -0.17424 
C  -2.51591  0.08752  -1.77256 
C  -3.9249  0.14631  -1.86741 
C  -4.54327  0.23042  -3.13423 
C  -3.78796  0.24625  -4.28954 
C  -2.41579  0.20069  -4.21724 
C  -0.31811  0.1745  -3.05961 
C  2.00373  0.01546  -2.54752 
C  2.30897  -1.13033  -3.52916 
H  3.55392  1.43081  -3.13877 
H  1.93104  1.74774  -3.91172 
H  2.22627  2.13569  -2.21 
H  -4.30806  0.7461  0.17032 
H  -5.75147  0.65813  -0.87495 
H  -5.79377  -1.21341  0.69652 
H  -5.60248  -1.82329  -0.99587 
H  -4.20034  -1.78899  0.14436 
H  -5.62013  0.28224  -3.21785 
H  -4.25103  0.29865  -5.26725 
H  -1.83917  0.22279  -5.12927 
H  0.11353  0.17618  -4.08463 
H  2.81624  -0.22272  -1.89587 
H  3.41251  -1.19903  -3.69785 
H  1.99436  -2.09218  -3.06631 
H  1.84204  -1.00756  -4.51897 
N  0.58046  0.0  -1.93122 
O  -1.94046  0.0  -0.54878 
P  0.0  0.0  2.33 
C  1.04659  -1.0334  3.36776 
C  2.41859  -0.773  3.4824 
C  3.18838  -1.48027  4.41426 
C  2.59165  -2.44153  5.23685 
C  1.22533  -2.69914  5.12946 
C  0.4553  -1.99776  4.20664 
H  2.88471  -0.00049  2.88608 
H  4.24342  -1.26696  4.51776 
H  3.1825  -2.97388  5.97146 
H  0.75379  -3.42348  5.78249 
H  -0.60985  -2.18609  4.17767 
C  -1.00513  0.93117  3.49463 
C  -2.39049  1.07929  3.32725 
C  -3.11996  1.8691  4.22732 
C  -2.4722  2.50097  5.29636 
C  -1.09848  2.33376  5.47954 
C  -0.36707  1.55196  4.58401 
H  -2.89459  0.61671  2.48892 
H  -4.18163  2.01452  4.08257 
H  -3.03134  3.1274  5.97912 
H  -0.59473  2.82157  6.30491 
H  0.70097  1.44524  4.73087 
H  -0.98366  -0.99912  2.40647 
70

Cr  0.0  0.0  0.0 
N  0.21195  1.93025  0.0 
N  2.75827  0.88424  -0.75103 
N  2.79935  -0.90491  0.64842 
C  1.95457  0.01115  0.0 
N  0.23348  -1.9414  0.0 
C  1.04103  4.11036  -0.89767 
H  1.71167  4.63422  -1.54717 
C  1.21067  2.65532  -0.75669 
C  4.09187  0.51909  -0.53803 
H  4.93492  1.0045  -0.98427 
C  2.22515  1.92916  -1.56144 
H  1.72278  1.54753  -2.44229 
H  3.02107  2.60174  -1.88866 
C  -0.70843  -2.65736  -0.79732 
H  -1.54882  -2.17181  -1.17579 
C  2.29517  -1.95862  1.46516 
H  1.82588  -1.52664  2.35361 
H  3.10151  -2.62054  1.7999 
C  0.1135  4.74169  -0.18545 
H  0.01631  5.80717  -0.23968 
C  4.11729  -0.58086  0.29869 
H  4.98867  -1.10448  0.63078 
C  -0.63971  -4.10291  -0.85786 
H  -1.38095  -4.58835  -1.46621 
C  1.25307  -2.67742  0.68773 
C  -0.6419  2.68791  0.83263 
H  -1.21501  2.1994  1.55865 
C  0.28738  -4.7494  -0.18045 
H  0.30638  -5.81877  -0.22257 
C  1.28135  -4.01683  0.61051 
H  2.03129  -4.59048  1.12398 
C  -0.74307  4.00523  0.73704 
H  -1.44727  4.53225  1.36019 
C  -2.88921  0.41918  0.91207 
O  -1.94323  0.0  -0.05677 
C  -2.26751  0.60836  -1.29608 
C  -1.40474  0.00815  -2.3935 
O  -0.05677  0.0  -1.94323 
C  0.79081  -0.71634  -2.84175 
C  0.78644  -0.20816  -4.28362 
O  -0.24748  -0.86006  -4.99037 
C  -0.11202  -0.57388  -6.36091 
H  -2.95694  1.51078  1.03403 
H  -2.61555  -0.047  1.87998 
H  -3.92124  0.17162  0.6424 
H  -2.04879  1.69182  -1.25488 
H  -3.33391  0.47383  -1.57181 
H  -1.54914  0.55539  -3.33412 
H  -1.78171  -0.9838  -2.66174 
H  1.81943  -0.5795  -2.47834 
H  0.65184  -1.80646  -2.79869 
H  0.66387  0.89556  -4.29208 
H  1.78208  -0.44682  -4.72348 
H  -0.27799  0.50755  -6.55258 
H  0.8641  -0.92361  -6.7537 
H  -0.8665  -1.14696  -6.93224 
C  0.0  0.0  1.97 
C  -0.06571  -0.02475  3.17689 
C  -0.04256  -0.0091  4.61793 
C  1.11095  0.42023  5.28836 
C  1.14721  0.4376  6.68296 
C  0.03353  0.03064  7.41928 
C  -1.11031  -0.41266  6.75639 
C  -1.15029  -0.42819  5.36132 
H  1.98855  0.73495  4.74463 
H  2.04415  0.76272  7.18656 
H  0.05581  0.0514  8.49938 
H  -1.9673  -0.74985  7.31912 
H  -2.04321  -0.77225  4.86978 
61

Cr  0.0  0.0  0.0 
N  0.36762  -1.98881  0.0 
N  -0.58484  -2.96402  0.10196 
H  -0.95689  -3.37967  -0.76215 
C  -1.01402  -3.39262  1.3102 
O  -0.50897  -2.95682  2.33002 
C  -2.10124  -4.37714  1.39709 
N  -2.62448  -4.81178  0.30698 
O  -3.6436  -5.64136  0.3101 
H  -4.05017  -5.89403  -0.52675 
C  -2.62755  -4.81852  2.73196 
H  -3.72848  -4.68437  2.75394 
H  -2.1926  -4.2223  3.56063 
H  -2.37097  -5.88699  2.87635 
C  1.7482  -2.2758  0.10164 
N  2.2212  -3.60482  0.22501 
H  1.55031  -4.38456  0.25606 
H  3.22261  -3.81181  0.31366 
C  2.53363  -1.1985  0.09458 
N  1.84948  0.02363  0.0 
C  2.49882  1.25385  0.07828 
C  3.83021  1.3161  0.21114 
H  4.33725  2.27  0.29169 
C  4.61224  0.05002  0.26642 
H  5.68694  0.11049  0.36543 
C  4.00629  -1.15544  0.20897 
H  4.59393  -2.06067  0.26023 
C  1.56558  2.37872  0.03395 
N  0.1829  1.96518  0.0 
C  -0.84999  2.94318  0.04789 
H  -1.89017  2.65715  0.02326 
C  -0.53151  4.24858  0.13458 
H  -1.31681  4.99286  0.17884 
C  0.8866  4.69743  0.18051 
H  1.11771  5.75065  0.25693 
C  1.8901  3.81865  0.13499 
H  2.9262  4.13211  0.17276 
N  -1.93372  0.0  -0.06628 
H  -2.17675  -0.96181  0.25938 
H  -2.4692  0.63788  0.56281 
N  -0.06628  0.0  -1.93372 
H  -0.00904  0.95447  -2.35909 
H  0.71276  -0.5832  -2.31645 
C  -2.3837  0.09818  -1.44912 
H  -2.44372  1.1651  -1.74832 
H  -3.38678  -0.36701  -1.58074 
C  -1.34508  -0.58634  -2.30138 
H  -1.34435  -1.66596  -2.06911 
H  -1.55815  -0.46784  -3.38538 
O  0.0  0.0  1.85 
C  0.01938  -0.02933  3.19371 
C  0.74142  -0.99442  3.92768 
C  0.69251  -0.97394  5.33202 
C  -0.04676  0.01457  5.99008 
C  -0.7249  0.98616  5.25281 
C  -0.68972  0.95834  3.8623 
H  1.32778  -1.75919  3.42889 
H  1.22138  -1.71529  5.92002 
H  -0.09346  0.03773  7.07024 
H  -1.2833  1.76194  5.75342 
H  -1.21388  1.70738  3.28744 
60

Cr  0.0  0.0  0.0 
N  0.29161  -2.03411  0.0 
N  1.88082  0.02458  0.0 
N  0.22757  2.00953  0.0 
C  -0.74308  -3.04632  0.00392 
H  -1.80732  -2.74942  0.08781 
C  -0.24536  -4.46627  -0.15161 
H  -0.95518  -5.28476  -0.17324 
C  1.06771  -4.72976  -0.26816 
H  1.4152  -5.7511  -0.38593 
C  2.06491  -3.64624  -0.2207 
H  3.1184  -3.89167  -0.30078 
C  1.66093  -2.37815  -0.07285 
C  2.56766  -1.21917  0.01112 
C  4.03186  -1.1743  -0.17033 
H  4.53604  -2.12311  -0.26144 
C  4.66921  0.01614  -0.26497 
C  3.8792  1.29516  -0.21873 
H  4.36852  2.25568  -0.28315 
C  2.5427  1.24933  -0.10201 
C  1.62273  2.39826  -0.06078 
C  1.97079  3.83527  -0.24376 
H  3.0077  4.14704  -0.32775 
C  0.98202  4.73088  -0.31526 
H  1.22963  5.77725  -0.45761 
C  -0.44231  4.30644  -0.21604 
H  -1.21462  5.065  -0.28116 
C  -0.78535  3.00797  -0.06722 
H  -1.83054  2.7381  -0.01383 
C  6.14869  0.03385  -0.47522 
C  6.91995  -1.08335  -0.09113 
H  6.50186  -1.94613  0.39612 
C  8.28531  -1.10549  -0.32226 
H  8.84473  -1.98027  -0.0217 
C  8.90964  -0.02914  -0.95223 
C  8.15366  1.09144  -1.32505 
H  8.62851  1.93542  -1.80978 
C  6.78072  1.12959  -1.07741 
H  6.2309  2.00619  -1.39155 
C  10.3718  -0.08496  -1.23891 
H  10.83289  -0.97776  -0.76403 
H  10.86238  0.82481  -0.84436 
H  10.51317  -0.15473  -2.33599 
O  -1.97352  0.0  -0.02647 
N  -0.02647  0.0  -1.97352 
C  -2.76209  0.53574  -1.07336 
C  -1.13816  -0.07707  -2.82774 
C  1.05672  -0.04913  -2.87798 
N  -2.4575  -0.03314  -2.36605 
C  -4.24094  0.22075  -0.77983 
N  -0.83182  -0.17937  -4.06419 
N  0.53407  -0.16685  -4.17234 
H  2.10688  -0.02245  -2.63578 
H  -3.19918  -0.07828  -3.08299 
H  -4.55648  0.64664  0.19179 
H  -4.42119  -0.88141  -0.76315 
H  -4.88658  0.64477  -1.57976 
H  1.05034  -0.23114  -5.06058 
O  0.0  0.0  1.85 
H  0.0  0.0  2.66986 
61

Cr  0.0  0.0  0.0 
O  0.2627  -2.00364  0.0 
N  2.14495  0.0256  0.0 
N  -0.00766  1.97804  0.0 
N  -0.70178  4.20656  -0.06067 
C  1.29109  -2.8213  0.34621 
C  0.97817  -4.13815  0.6857 
C  1.97618  -5.03143  1.08614 
C  3.30357  -4.59979  1.14285 
C  3.62023  -3.29796  0.77815 
C  2.6215  -2.40224  0.35767 
C  3.06931  -1.08802  -0.14941 
C  2.82844  1.31311  -0.29408 
C  2.40643  2.3942  0.68198 
C  1.04547  2.85481  0.32812 
C  -1.11708  2.88297  -0.16337 
C  0.65421  4.14199  0.27555 
H  -0.04867  -4.47357  0.64456 
H  1.73598  -6.05084  1.34516 
H  4.0871  -5.27956  1.44556 
H  4.66295  -2.99561  0.79741 
H  4.07065  -0.84687  0.28257 
H  2.6629  1.63069  -1.34571 
H  3.92794  1.22992  -0.15035 
H  2.44027  1.98222  1.7117 
H  3.09285  3.26998  0.6497 
H  -2.13776  2.63119  -0.31755 
H  1.26617  4.99957  0.50241 
H  -1.30321  5.04762  -0.11418 
N  -1.96351  0.0  -0.03649 
N  -0.03649  0.0  -1.96351 
C  -2.91554  0.12974  1.08588 
C  -4.31635  0.56485  0.68518 
H  -5.10917  0.59072  1.42725 
C  -4.58927  1.00374  -0.54595 
H  -5.57563  1.39334  -0.78476 
C  -3.56743  0.97035  -1.5935 
H  -3.81384  1.38234  -2.56881 
C  -2.34145  0.47384  -1.34714 
C  -1.30152  0.49776  -2.44251 
C  -1.08984  1.82494  -3.15651 
H  -1.82534  2.62429  -3.12606 
C  0.01308  1.96681  -3.91008 
H  0.15947  2.86013  -4.51205 
C  1.04074  0.89414  -3.90897 
H  1.81954  0.90552  -4.66617 
C  1.01012  -0.05807  -2.94447 
C  -2.87596  -0.88915  2.22445 
H  -2.86085  -1.9443  1.89235 
H  -3.73642  -0.71847  2.90804 
H  -2.01819  -0.67941  2.86116 
C  2.00898  -1.16321  -2.99102 
H  3.02804  -0.77806  -2.79558 
H  1.98787  -1.61106  -4.00966 
H  1.72055  -1.96444  -2.28774 
N  0.0  0.0  1.93 
C  0.40772  0.89857  3.00488 
C  0.16566  0.21138  4.38653 
H  -0.3292  0.92155  5.081 
H  1.11495  -0.1128  4.86457 
H  -0.48739  -0.69427  4.36223 
126

Cr  0.0  0.0  0.0 
N  1.86095  -0.01  0.0 
N  0.23632  -2.07522  0.0 
N  0.30273  2.08522  0.0 
N  -2.03159  -2.90689  0.12768 
N  -1.99774  2.91307  0.13177 
C  2.52071  1.23697  0.0004 
C  1.73126  2.32679  -0.07165 
C  2.53694  -1.24008  0.11012 
C  -3.36031  4.69903  -0.89992 
C  -0.73758  -3.06862  -0.50125 
C  -0.12178  4.45069  -0.07976 
H  -0.79492  5.30697  -0.04984 
C  1.63518  -2.40188  0.03988 
C  -3.34387  -4.56639  1.30311 
C  -0.60989  3.17984  -0.02729 
C  -3.06597  -3.88391  0.12401 
C  -3.88241  -4.08519  -0.99367 
C  -2.4132  -4.41208  2.46642 
H  -1.4202  -4.83467  2.17454 
H  -2.77154  -4.94033  3.35972 
H  -2.29676  -3.33787  2.70361 
C  -2.96006  3.92239  0.2177 
C  -4.3555  5.66547  -0.72538 
H  -4.68071  6.25881  -1.56675 
C  -3.55813  4.12434  1.48558 
C  2.05998  -3.66857  -0.04942 
H  3.11506  -3.92107  -0.04592 
C  1.32656  4.72544  -0.13667 
H  1.67282  5.75519  -0.16313 
C  4.00233  1.21783  0.10921 
H  4.60354  2.11446  0.13645 
C  -4.94158  5.86896  0.53265 
C  2.20983  3.71805  -0.12693 
H  3.27682  3.95216  -0.15493 
C  -3.07431  3.35683  2.67498 
H  -3.268  2.26903  2.55355 
H  -3.52974  3.69215  3.62569 
H  -1.98294  3.53225  2.74801 
C  3.87894  -1.25729  0.20837 
H  4.43762  -2.17815  0.26742 
C  1.08902  -4.7595  -0.19359 
H  1.44551  -5.78595  -0.17891 
C  4.63543  0.02792  0.20522 
H  5.71704  0.00113  0.28925 
C  -4.47909  -5.38462  1.38269 
H  -4.70742  -5.88976  2.30567 
C  -4.53678  5.10508  1.63396 
H  -4.96066  5.2817  2.61462 
C  -0.21068  -4.49481  -0.38912 
H  -0.88196  -5.34088  -0.51523 
C  -2.7236  4.51813  -2.24294 
H  -1.72757  4.98486  -2.29518 
H  -3.37348  4.89668  -3.06407 
H  -2.49584  3.46519  -2.37022 
C  -6.55298  -6.36082  0.35086 
H  -6.32189  -7.33474  0.81988 
H  -6.98379  -6.53521  -0.65916 
H  -7.29479  -5.79705  0.95584 
C  -5.31055  -5.54732  0.26419 
C  -5.97548  6.92299  0.70459 
H  -5.458  7.90201  0.77176 
H  -6.56352  6.74983  1.63003 
H  -6.664  6.91916  -0.16545 
C  -4.99347  -4.91867  -0.93135 
H  -5.64933  -5.01674  -1.7931 
C  -3.63677  -3.33877  -2.20827 
H  -3.81448  -2.29175  -1.91664 
H  -4.34293  -3.63643  -3.01587 
H  -2.59289  -3.47107  -2.55903 
H  -2.17013  2.06914  0.67591 
H  -2.15231  -2.15964  0.81629 
S  0.5308  0.0  -1.90399 
S  -1.8908  0.0  -0.57602 
C  -1.2016  0.51216  -2.18611 
N  -1.86339  -0.1641  -3.33283 
C  -1.20513  -0.10143  -4.66207 
C  -0.42821  -1.41074  -4.87368 
C  0.10792  -1.47625  -6.29564 
C  0.98538  -0.24764  -6.58517 
C  0.20213  1.06284  -6.37177 
C  -0.34446  1.14794  -4.93585 
C  -3.34774  -0.05269  -3.38287 
C  -3.95331  -1.13866  -4.29333 
C  -5.45536  -1.20332  -4.03853 
C  -6.03667  0.11285  -4.53643 
C  -5.44155  1.30294  -3.78204 
C  -3.90575  1.28995  -3.87563 
H  -1.9596  -0.06668  -5.46697 
H  -1.10155  -2.27992  -4.70119 
H  0.4125  -1.48822  -4.15113 
H  0.68889  -2.41615  -6.41813 
H  -0.75262  -1.50371  -7.00403 
H  1.86772  -0.26069  -5.90602 
H  1.34317  -0.30229  -7.63235 
H  -0.65103  1.09757  -7.08646 
H  0.85976  1.93596  -6.57466 
H  0.50869  1.2182  -4.23933 
H  -0.96447  2.06329  -4.81967 
H  -3.73647  -0.19484  -2.35907 
H  -3.41819  -2.06885  -4.14223 
H  -3.79455  -0.97047  -5.37044 
H  -5.88062  -2.06576  -4.5888 
H  -5.68381  -1.34221  -2.9555 
H  -5.80417  0.21257  -5.62297 
H  -7.15025  0.1021  -4.42386 
H  -5.73852  1.24181  -2.71099 
H  -5.82801  2.25953  -4.19261 
H  -3.58137  1.49439  -4.91783 
H  -3.55932  2.07109  -3.23175 
P  0.0  0.0  2.33 
O  0.85875  -1.13014  3.30436 
O  1.26816  1.12377  2.60997 
O  -1.4375  -0.15775  3.26399 
C  0.38783  -2.45036  3.07445 
C  0.75522  2.38996  2.9819 
C  -1.1594  0.04406  4.64679 
H  -0.19959  -2.59117  2.16471 
H  1.24126  -3.15957  2.99753 
H  -0.28388  -2.76535  3.89246 
H  1.39631  2.85085  3.75702 
H  -0.28029  2.38913  3.34462 
H  0.805  3.09467  2.15115 
H  -2.08957  -0.10944  5.22293 
H  -0.45123  -0.69108  5.08524 
H  -0.81046  1.06491  4.87765 
100

Cr  0.0  0.0  0.0 
S  -0.01985  -2.16602  0.0 
N  0.55292  2.18797  0.0 
N  1.86693  -0.02195  0.0 
N  2.52252  -1.20838  -0.37713 
H  3.45716  -1.19912  0.09184 
N  0.0  3.39148  0.48703 
H  -0.90274  3.72649  0.11279 
N  2.28165  -3.62786  -0.40681 
C  0.90418  5.80391  0.40144 
H  0.16324  6.18845  -0.33401 
H  1.86239  6.33457  0.2124 
H  0.5437  5.99312  1.42893 
C  1.07047  4.32182  0.12908 
C  2.31918  3.56412  0.32315 
H  3.32438  3.92051  0.51196 
C  1.93445  2.32026  0.14811 
C  2.69015  1.12742  0.15589 
H  3.76398  1.08857  0.29587 
C  1.80119  -2.35711  0.18748 
C  3.74057  -3.82694  -0.21149 
H  4.32545  -2.98508  -0.63323 
H  4.06584  -4.71367  -0.79422 
C  4.09749  -4.03317  1.27325 
H  3.8197  -3.13639  1.86934 
H  5.19276  -4.19021  1.37636 
C  3.35625  -5.26022  1.80095 
H  3.58524  -5.416  2.8779 
H  3.69656  -6.15784  1.23844 
C  1.85213  -5.08285  1.60178 
H  1.32248  -6.00196  1.93057 
H  1.48834  -4.23448  2.22027 
C  1.55346  -4.81807  0.11484 
H  1.85126  -5.70604  -0.48269 
H  0.45823  -4.72492  -0.0283 
P  -1.20232  -0.05406  -2.23176 
O  0.38158  0.0  -1.82216 
N  -1.74158  0.0  -0.65784 
C  -3.14382  0.01111  -0.19232 
C  -3.48285  1.2772  0.60998 
C  -3.41771  -1.20693  0.68903 
C  -1.51746  1.66912  -3.06492 
C  -3.02394  1.90202  -3.22852 
C  -0.95865  2.76839  -2.25812 
C  -0.82765  1.7071  -4.42877 
C  -1.52119  -1.74023  -3.11659 
C  -1.30959  -3.0179  -2.35423 
C  -0.61176  -1.81901  -4.35806 
C  -3.00057  -1.73711  -3.54954 
H  -3.82539  -0.01131  -1.0638 
H  -4.56372  1.30938  0.85018 
H  -3.21955  2.20445  0.0659 
H  -3.00908  1.26397  1.59531 
H  -4.45968  -1.17522  1.07444 
H  -2.71991  -1.22043  1.55591 
H  -3.29496  -2.1401  0.11273 
H  -3.48553  1.13418  -3.86612 
H  -3.20524  2.88376  -3.70539 
H  -3.53776  1.90016  -2.25218 
H  0.14839  2.67183  -2.21011 
H  -1.51326  2.62938  -1.33867 
H  -1.17761  3.76885  -2.69205 
H  -1.29642  0.99685  -5.12034 
H  0.26435  1.48851  -4.33726 
H  -0.94274  2.71129  -4.8919 
H  -0.22429  -3.17877  -2.21781 
H  -1.6382  -3.91958  -2.9293 
H  -1.93573  -3.00445  -1.43629 
H  -0.80974  -1.02058  -5.08477 
H  -0.75956  -2.77823  -4.89646 
H  0.45331  -1.74399  -4.04397 
H  -3.1997  -0.92338  -4.26598 
H  -3.66481  -1.61989  -2.66629 
H  -3.27024  -2.68475  -4.06281 
N  0.0  0.0  1.93 
C  0.70413  -0.90944  2.82524 
H  1.28781  -1.76806  2.47412 
C  0.48458  -0.67846  4.29033 
H  0.92148  -1.38732  4.98465 
C  -0.2477  0.36754  4.71664 
C  -0.80432  1.32432  3.7642 
H  -1.33896  2.20377  4.11911 
C  -0.66297  1.12951  2.47143 
H  -1.08567  1.85759  1.82481 
C  -0.57241  0.61106  6.14587 
H  -0.98093  1.6032  6.45762 
N  0.31177  -0.06727  7.05534 
N  -0.17295  0.19752  8.333 
C  0.66941  -0.56191  9.22475 
H  1.04321  -1.54451  8.85609 
C  0.33249  -0.40536  10.66954 
C  0.81543  -1.35338  11.5585 
H  1.3981  -2.18986  11.19639 
C  0.57646  -1.19304  12.91966 
H  0.97321  -1.92299  13.6155 
N  -0.14667  -0.13556  13.36957 
C  -0.64522  0.79803  12.51752 
H  -1.22313  1.63011  12.91054 
C  -0.43399  0.6791  11.14524 
H  -0.82816  1.4423  10.48338 
