49

Fe  0.0  0.0  0.0 
O  0.41922986470442825  7.550439360594549  -0.6495072948244792 
O  -0.22470023618068602  7.192845737676347  1.4010564608345337 
O  -0.28238013654111893  -7.347560896083625  0.9196157749725402 
O  0.7052089620437447  -7.500409162470291  -0.9887237178376467 
N  1.3071013550983726  1.3373055176361155  1.2939104444337384e-15 
N  1.307101355098372  -1.337305517636116  0.0 
N  0.2812825338221061  6.863559475717004  0.3053129488094077 
N  0.2891120600307917  -6.843042608301024  -0.049154283684493344 
C  2.444345490624664  0.7446071554839353  -0.25278142280080745 
C  3.825866476430984  1.1813245751745  -0.48560142004238094 
C  4.484203184335286  2.397354493958171  -0.5244842652150785 
H  4.00958039627604  3.217316877676062  -0.44598879819594106 
C  5.8877839635508105  2.377475341700582  -0.6859190679136714 
H  6.351408333075352  3.2063424407905075  -0.7121683732227508 
C  6.6069649658401515  1.2356064120791408  -0.8027240057856275 
H  7.549281942779539  1.2874936690184935  -0.9112154687637954 
C  5.984637724469503  -0.019096479572703107  -0.7689204804001684 
C  4.577503978935779  -0.0209332849755115  -0.6170853450517417 
C  6.590647733543017  -1.2871378415776258  -0.804605115012201 
H  7.532267955010681  -1.3537954854925123  -0.9092389863490364 
C  5.8453958052623065  -2.4148199831018076  -0.6939728815478539 
H  6.292560417276369  -3.2522811355687926  -0.7299084888334639 
C  4.448871126256093  -2.4163341696308356  -0.5295789395492143 
H  3.9673546383261833  -3.2307525883368244  -0.44501061732344926 
C  3.8025615585057677  -1.1981267790865266  -0.49470106321467333 
C  2.4303845097322303  -0.7444520525569944  -0.26707883379164943 
C  1.1599943475880703  2.742248509512139  0.06040039668587123 
C  1.4056450071392437  3.5946246643753286  -1.0471830873381327 
H  1.7826563635739374  3.2460887547771256  -1.846806377919295 
C  1.0932176864643521  4.920619238251385  -0.95696103156922 
H  1.2131881195316878  5.499908215066025  -1.7011936743165657 
C  0.5968867710836849  5.405365323907176  0.24784129449045872 
C  0.35805420093842644  4.607958732117309  1.330736303624727 
H  0.003461699942454599  4.970926957103037  2.134413381740134 
C  0.6460882905857848  3.2567441321849664  1.2294706720871782 
H  0.4889794076515541  2.682640286896782  1.9697460490439438 
C  1.08580278959995  -2.7266046160830752  -0.029877415597878307 
C  0.40798497422321134  -3.2980385292182  1.0269944697680902 
H  0.13420188431417546  -2.759525156243426  1.760160342410281 
C  0.12425009694173372  -4.658575464126052  1.0211799908047758 
H  -0.3405150041004146  -5.059081319322662  1.7462866731671107 
C  0.5297589246351675  -5.415836682033893  -0.05736224226514541 
C  1.1747846367912422  -4.8615555172404825  -1.1551920473865271 
H  1.4043051346049857  -5.40369955645866  -1.9014430720582136 
C  1.4825304498744591  -3.503562570938924  -1.1527156942290246 
H  1.9456107147579818  -3.1054181918286314  -1.882111287620081 
Cl  -1.5202795795510768  1.5202795795510768  0.0 
Cl  -1.5202795795510768  -1.5202795795510768  0.0 
