68

Ni  0.0  0.0  0.0 
N  1.2580152065853571  1.5803473478953922  -1.043802045432034e-15 
P  1.2580152065853574  -1.5803473478953922  1.1102230246251565e-16 
C  2.9082963831975857  -1.0417394455671105  0.5034160363645165 
C  3.359191107732588  0.1930004188042529  0.0340468908950867 
C  4.645972400424913  0.6035053314514327  0.3715754400130558 
H  4.974142913313849  1.4034987327019066  0.02726104527198437 
C  5.448792299735348  -0.15570516844141702  1.2115128996632754 
H  6.296620959468298  0.14311072834791294  1.4481059755582777 
C  4.977569797185427  -1.3598029590531797  1.6928668169990333 
H  5.511708262437631  -1.8740157054359394  2.2532164947856295 
C  3.718683337615685  -1.8024454584578762  1.3467876069435127 
H  3.4082803610274635  -2.6122649843389136  1.6775837943867717 
C  1.5041741250460765  -2.286163086116148  -1.6663569787240111 
C  0.3949951032424669  -2.68237634950655  -2.4188234414347414 
H  -0.4637114651500185  -2.4939556770534015  -2.1140297085727875 
C  0.571929651342852  -3.3473634622444797  -3.607757180371019 
H  -0.1692075129646795  -3.6325563602489708  -4.092896989714695 
C  1.839552855894879  -3.5972200020272354  -4.088594398989852 
H  1.9513007112147964  -4.043775343762597  -4.897389325778496 
C  2.937713663020061  -3.1890001439946682  -3.3718660200330257 
H  3.7906764460702327  -3.349347855108601  -3.705209494953113 
C  2.786347604956874  -2.54041530512047  -2.156592999988145 
H  3.533633919502269  -2.2779004468821906  -1.6706629604790346 
C  0.9180075749681409  -3.042284992854778  1.0352780702268753 
C  0.9385269445068767  -4.3282248229221345  0.505772481096719 
H  1.104287934323049  -4.453986555154407  -0.4007593445779916 
C  0.7135128529968807  -5.4221717215595335  1.322805559731587 
H  0.7100039432151386  -6.281095382745598  0.9628115433828801 
C  0.49324989844944833  -5.236584445198683  2.6778229705817505 
H  0.34781227582809904  -5.9705358778028375  3.2302164829482076 
C  0.4893638428131013  -3.9792452769163393  3.202434173735727 
H  0.33714030178083343  -3.8611852945659595  4.111934252967729 
C  0.709606996293909  -2.876270103565157  2.392944198309362 
H  0.7174076690959934  -2.021946772812576  2.7630148078363215 
C  2.4737193951759107  1.0976462815659578  -0.7831157362790374 
H  2.173902162354243  0.6215096391992776  -1.57200551609556 
H  2.9882042167060687  1.8668329490532272  -1.0757755711982093 
C  1.6954012917456387  2.0304416331468413  1.3765272416091832 
H  2.34146970053408  1.3804315000150233  1.726011043796848 
C  2.413495342604647  3.3532548253124776  1.141889237966403 
H  2.266244897509717  3.9594281841476455  1.883342389188957 
H  3.36725554915217  3.213579822665775  1.037780246798032 
C  1.8084014419429888  3.909604194437498  -0.13666683857318196 
H  2.4981905433848994  4.0483256598747985  -0.8046948773252339 
H  1.3713935956419365  4.7571146621733895  0.03740015815340055 
C  0.5386301685499888  2.1417192774154863  2.361390010946508 
H  -0.13541192675642155  2.719894253452768  1.9984086879569274 
H  0.8585579545614707  2.5016903437494777  3.19119145896897 
H  0.16337546565398453  1.2710287600222925  2.514362364252653 
C  0.5452676575928177  2.7792013039722754  -2.1212181248999666 
H  -0.04016784612671764  2.0421222361640097  -2.3051867330470004 
H  1.3817418061283764  2.6440995237944325  -2.572249695662497 
H  0.14165890493664834  3.5927330580592267  -2.432094225415187 
C  0.7855210461081249  2.872679443570342  -0.6317067933806977 
H  -0.0737785563379949  3.098189879914992  -0.21648979428792794 
Br  -1.5839191898578664  1.5839191898578664  0.0 
C  -1.29374738  -1.23987949  -0.45980057 
C  -1.6015622  -1.49386547  -1.79197911 
H  -1.13094174  -1.04282176  -2.48087966 
C  -2.60218399  -2.41188997  -2.12154241 
H  -2.82315865  -2.56261387  -3.0327005 
C  -3.26832081  -3.09759503  -1.14306437 
H  -3.95960209  -3.70719172  -1.36832808 
C  -2.93474499  -2.89608732  0.14198827 
H  -3.36683509  -3.40560694  0.81710224 
C  -1.96755092  -1.95161757  0.51124219 
H  -1.77552984  -1.8022912  1.43013249 
