60

Fe  0.0  0.0  0.0 
O  2.1643908405232386  1.349750939230951  -0.10635474662316313 
N  1.497580836655549  -1.3497513573743662  0.15370628345361495 
C  3.1077098146018742  0.9188580171011443  -0.9078711986075672 
C  3.4712303895973426  -0.45264159463527276  -0.9518451290871444 
C  4.592760458117613  -0.8509351113199706  -1.6860326527974387 
H  4.8747541405388795  -1.7562354493282566  -1.6477598024126132 
C  5.301394166358723  0.04357177899681011  -2.466304266224621 
H  6.051455125251489  -0.2460237453086256  -2.97314364931075 
C  4.89526584879101  1.385172055723464  -2.4976355151078957 
H  5.350681229509787  2.002277006928829  -3.0583188483741846 
C  3.8432675502958653  1.8160652191045157  -1.7234389175212166 
H  3.6042231291559492  2.7349653184924954  -1.7346897871162894 
C  2.721722577309055  -1.4517480972648997  -0.21547657617221855 
H  3.1778434228179835  -2.253750135076346  0.015286409678001928 
C  0.9129664618926915  -2.467157855374791  0.8895500923200501 
H  0.38425293318846154  -2.115064556833219  1.6484404491485172 
H  1.6395084465965053  -3.0285611064372056  1.2577055135203834 
C  4.564705448262263e-05  -3.342550000154638  2.7531115744464484e-06 
C  -0.8395612240625732  -4.232858048974535  0.911465983406432 
H  -1.3667666774437413  -4.852653232834157  0.36607226324678743 
H  -1.44212943413087  -3.6755627736699825  1.4465039898492562 
H  -0.24879001378463317  -4.739863297685247  1.5058400027633765 
O  -2.1643467657818047  1.3497490608722846  0.1063549751973569 
N  -1.4976249113969833  -1.3497486427288694  -0.1537065120278087 
C  -3.107665739860441  0.9188419830356924  0.9078638169536781 
C  -3.471274464338777  -0.45265840553791825  0.9518607444108683 
C  -4.592757313491515  -0.8509648896005759  1.686129383132351 
H  -4.874710065797444  -1.7562645503263052  1.6477051751770497 
C  -5.301350091617289  0.0435282212082819  2.4662814256878343 
H  -6.051363831142521  -0.24607625524211427  2.9732038435618797 
C  -4.895221774049576  1.3851279443770108  2.4976363688899657 
H  -5.350589935400821  2.0022229923451103  3.0584187503899884 
C  -3.8431762561868994  1.8160347801839436  1.7235355310142335 
H  -3.6042672038973835  2.7349346810857473  1.73476169940691 
C  -2.7216785025676216  -1.4517519024134067  0.2154273267840697 
H  -3.1777993480765505  -2.2537498645394214  -0.015349823380195908 
C  -0.9129223871512583  -2.4671421442243355  -0.8896172749307447 
H  -0.38429700792989613  -2.1150354432103384  -1.6484541938692685 
H  -1.6394171524875403  -3.028538893896557  -1.2576944616680448 
C  0.839517149321139  -4.232841950903877  -0.9115171311001078 
H  1.3668107521851747  -4.8526467665789506  -0.36618157674420915 
H  1.4420853593894352  -3.6755372262518895  -1.4465452949341817 
H  0.24879315841073024  -4.739836702932048  -1.5058119552225926 
C  0.0  0.0  1.91 
F  2.0212400411828315  -1.2016601776602653  2.092191995830565 
N  -0.00483814453395116  -0.01647270702498458  4.770338529314448 
C  0.9777782358849685  -0.5903148663383588  2.6784332697180693 
F  1.908792897171415  -1.207525834822195  4.756673501465336 
C  0.9454578673314673  -0.5867163124996788  4.058663947607399 
F  -1.9192098075351316  1.169539759481656  4.776256737567755 
C  -0.9357752523676088  0.5768272133807747  4.058273142074747 
F  -2.015535483246193  1.2428204548274755  2.124452075853691 
C  -0.9779103538877933  0.6135024706555745  2.6865848944310957 
C  1.9646333443909567e-16  -4.969886204835308e-17  -1.91 
C  0.23734475333757116  -0.05457482820434506  -3.385571410061063 
O  -1.0882173936402206  0.24893775677426794  -1.4587398229058117 
H  1.1923810011226657  -0.26858826477089814  -3.5626888975814754 
H  -0.34932681527550313  -0.7587654368747119  -3.7882210434168293 
H  0.007818454455489787  0.8329907730756869  -3.7910923485413193 
