57

Pd  0.0  0.0  0.0 
P  1.5785958048214876  1.4142613920347251  0.0 
N  2.94033240332394  0.45371381387765686  -0.2450999926470895 
H  3.676686657344087  0.7311840058875114  -0.29581877745572 
N  1.5785958048214876  -1.4142613920347251  0.0 
N  3.956246425635737  -1.6081506310002944  -0.06566847306810811 
C  1.4792819618455368  2.536233853375194  -1.4112401697042967 
C  1.5607139958269818  2.0236934389351724  -2.7038403930553936 
H  1.6708051529769814  1.1122538335978105  -2.827662373898257 
C  1.41838806242739  2.864213516549518  -3.7937442501956142 
H  1.4823707362197949  2.514712304974436  -4.64013231755122 
C  1.1828756873717041  4.209291088993985  -3.6110290474823996 
H  1.1242668357424472  4.707993729094537  -4.335033970992905 
C  1.102348207771603  4.721888702902544  -2.3443972378216222 
H  0.982584191590614  5.675382577935012  -2.209322515153858 
C  1.24107306226699  3.894588928907674  -1.242845814286027 
H  1.1455145154834225  4.272882282606793  -0.4320092138024861 
C  1.9179546758979007  2.4463328027518187  1.4389924981744093 
C  3.1528615237218203  3.0886407948359977  1.5318033299905571 
H  3.714803441327335  2.9580817722677937  0.8564851880279114 
C  3.4371467154335216  3.8811074324124837  2.626058852298614 
H  4.278041459288653  4.265653975974388  2.6813086992796156 
C  2.5022236678074594  4.043370063841487  3.62602800355247 
H  2.6627369478259544  4.62165288666772  4.333547172029074 
C  1.2845318479247831  3.408686659447201  3.5405906699251655 
H  0.6284563552445003  3.5204618842326054  4.212177996360481 
C  0.9881596831646398  2.593768115045827  2.459383785954226 
H  0.1823596593946517  2.201196382460224  2.383959277556529 
C  2.833418733001859  -0.9021860189256097  -0.09760026213094725 
C  1.4980823160504657  -2.7635105129872866  0.10938230082905587 
H  0.6211220709204744  -3.1279819592864744  0.1394778701730556 
C  2.6042018975919623  -3.5593370952152794  0.1266264983980253 
H  2.5440846718641907  -4.445366429719824  0.18974010682147532 
C  3.8601894684765474  -2.9429410139040293  0.059997730379834774 
C  5.136233621655849  -3.690700986675762  0.13649950981884 
C  6.348261071676331  -3.0100579383527943  0.07230487478966975 
H  6.327615473757798  -2.109374449307423  -0.03219039710166839 
C  7.552584242581059  -3.6898725294990333  0.13651983945293839 
H  8.320527457331028  -3.2356205407095198  0.09263727343574227 
C  7.561058128245492  -5.070251701973866  0.2691412685639315 
H  8.360756265629727  -5.464435830975609  0.3116334032165228 
C  6.363824446233057  -5.7583747253987365  0.3365984793545141 
H  6.384844444107059  -6.724065200081838  0.41570907785874195 
C  5.155744653855788  -5.086796585495246  0.2752450992238916 
H  4.334632478038454  -5.582019313729635  0.34296440344828644 
Br  -1.654629867976521  1.654629867976521  0.0 
C  -1.3788582233137676  -1.3788582233137676  0.0 
C  -2.618821778986925  -1.1522995256591737  0.5874691967409313 
H  -2.8106553971707884  -0.30966242518610043  0.9782000501948407 
C  -3.5854032518711887  -2.161278806785389  0.6049610958635797 
H  -4.421117162155692  -2.007227978208148  1.0287619599160838 
C  -3.3399450833386255  -3.3715361338635086  0.016423527177974573 
H  -3.9908757182151104  -4.061238805801311  0.045080339651694 
C  -2.164680252095028  -3.57422256025893  -0.6007549227026177 
H  -2.0132444416912625  -4.3986257169530365  -1.0474288760065327 
C  -1.1561711193052586  -2.601214672555715  -0.5998012209931929 
H  -0.3196784027493984  -2.7832859823079534  -1.0129111498427692 
