29

Fe  0.0  0.0  0.0 
O  3.5648771455899837  1.5392304458450838  0.053960564481366824 
C  2.49838104531939  0.7196845476938596  -0.0030610886965190647 
N  1.3223104164680848  1.3222689448444291  -2.4785627743538553e-17 
C  1.6403465091003075  2.7068999249022787  0.07423929449605234 
C  0.8462416417783939  3.8632139001804977  0.1114056808140357 
H  -0.10121522532513105  3.822637877269885  0.06002356969409934 
C  1.5188427615991398  5.063382013624857  0.2254934675718646 
H  1.0153256473312404  5.865397934164207  0.2940379702015693 
C  2.910710676130414  5.140827071530264  0.2452315400315804 
H  3.3224584213862216  5.995409313974859  0.3115492237601928 
C  3.717935367401455  4.016638648444452  0.17163468410536134 
H  4.666454974535574  4.061314351697051  0.1626049321128182 
C  3.0288611572938877  2.8323536577807427  0.11318082321239004 
O  3.5649456634926957  -1.5172652623525396  -0.09891458416875401 
C  2.4870607663116586  -0.7078613289296627  -0.029547149527972272 
N  1.3223104164680848  -1.3222689448444291  2.7755575615628914e-17 
C  1.628944361295005  -2.6979956584548908  -0.051880664398597495 
C  0.8293632837710321  -3.843845075782212  -0.0993213987547524 
H  -0.11893213405131364  -3.7895583209734567  -0.09971988273756469 
C  1.48650068189789  -5.061456161089387  -0.1446631556698775 
H  0.9710817113177757  -5.8588559443264145  -0.1744973719271342 
C  2.8807673504150206  -5.162770875106029  -0.14737346670857324 
H  3.284836858049121  -6.022958785012527  -0.15884877284946933 
C  3.691143697731911  -4.0241426551283315  -0.13205509930966694 
H  4.638495190331549  -4.07790465663126  -0.1463444892077802 
C  3.01440420118539  -2.796515521231617  -0.09635266333525036 
Cl  -1.5202795795510768  1.5202795795510768  0.0 
Cl  -1.5202795795510768  -1.5202795795510768  0.0 
