29

Fe  0.0  0.0  0.0 
N  1.3453354321506588  1.2988350838347416  -4.431713515116058e-16 
N  1.3453354321506588  -1.298835083834741  5.551115123125783e-16 
O  0.1485870404119567  3.144009378730006  0.5197094556852306 
H  0.24982700988813633  3.942830085772142  0.7576012516370171 
C  2.546047949460003  0.7226354921279781  -0.30962359615127094 
N  0.10742010106651212  -3.1648989668984235  0.5910894918640954 
C  1.327660697963159  2.628755638413617  0.18544234219836905 
C  2.522737118874107  -0.7496547230039916  -0.30886359348201353 
C  2.4247311359082655  -3.4792661372049727  -0.05461067852012946 
C  1.2898483046425084  -2.665200900471246  0.17973206115813806 
C  3.6223276973858556  -2.860351707648126  -0.4651497690137988 
H  4.3856471044675915  -3.387101557197963  -0.6701752766259821 
C  3.693664632780482  1.4606872755536016  -0.4959030989066586 
H  4.508648764901743  1.0329666804494082  -0.7346390344385517 
C  2.4701432247153634  3.4238892799771543  0.02942555425602722 
H  2.426426574801713  4.361874352264448  0.17424405682573632 
C  3.6440650673868493  2.8325897188869833  -0.33121108608072164 
H  4.422534926185357  3.3602856662249803  -0.46868583323560514 
C  3.6784279952763015  -1.511136051395519  -0.5667371181250563 
H  4.490554328575051  -1.0816323507771426  -0.8092426436659401 
C  0.026637591044679665  -4.473189912491794  0.7606479117463755 
H  -0.8046946870923835  -4.833331281339755  1.0474109633618038 
C  1.0888538613406784  -5.368466514173083  0.5450210776081549 
H  0.9721862509988415  -6.301584232568659  0.679789999520293 
C  2.2824353814024767  -4.870575547838299  0.14156794450689786 
H  3.0179544325402503  -5.451922455846578  -0.008384507832542392 
Cl  -1.5202795795510768  1.5202795795510768  0.0 
Cl  -1.5202795795510768  -1.5202795795510768  0.0 
