38

Pd  0.0  0.0  0.0 
P  1.5786548854958768  1.4141954435296422  6.894026171561633e-17 
N  1.5786548854958768  -1.4141954435296422  0.0 
H  1.3147072006828435  -2.0819702651221887  0.5748297376866398 
H  1.7189558913265621  -1.8014633013817956  -0.82312813342609 
C  1.7084679742748907  2.816280190070151  -1.1218338092160172 
C  2.8687313708857576  -0.8787831365077872  0.48062341113774193 
H  3.60066115128422  -1.5073070997738092  0.2594424803000259 
H  2.8425030415719768  -0.7611745020287484  1.4624020337596642 
C  3.109669074892956  0.4551561882376469  -0.19623801536361363 
H  3.3154398391048363  0.3247654980090262  -1.1553082007501585 
H  3.8694175824678623  0.9260730993668704  0.2297961124363057 
C  1.6337431642404643  2.0663909687096584  1.6777625632014126 
H  2.4526697405940094  2.5901757421573994  1.7984276105273853 
H  1.623952311622743  1.3238075762904704  2.3172271396309707 
H  0.8538472788215772  2.6391512075479064  1.8314855826638663 
C  1.7616241179914833  2.579025147611115  -2.4958121384530525 
H  1.6830430496487845  1.692298902849518  -2.8281757383690493 
C  1.7952873118821366  4.12664012898701  -0.6442770135369591 
H  1.7418358801809999  4.298587935856677  0.28891563332746706 
C  1.9303958292810637  3.643906672219446  -3.3763112571444007 
H  1.9723472094439345  3.483185969830027  -4.3118852774794645 
C  1.9598049537183346  5.182715399087183  -1.5399676685108354 
H  2.0180505969400038  6.073450060808355  -1.217035032417538 
C  2.0372604380592425  4.932968122912623  -2.892678977692855 
H  2.164991415464799  5.654371278090174  -3.498495010091223 
Br  -1.654629867976521  1.654629867976521  0.0 
C  -1.352040782177733  -1.3199206589279684  -0.4819701001757076 
C  -1.6380700204479186  -1.599217458033982  -1.8139382277462257 
H  -1.1579680913617836  -1.159339363685303  -2.503515938957912 
C  -2.63068216563725  -2.52632649780156  -2.142289956238523 
H  -2.8368222554424674  -2.694399528648736  -3.0538898079700485 
C  -3.3101544432602585  -3.1961573187854975  -1.1619874135498987 
H  -3.9960123560788676  -3.811990145619169  -1.3868663427944008 
C  -2.9974710358883443  -2.9701089012107795  0.12423560353005347 
H  -3.438659168087169  -3.468581175155742  0.8017084178296768 
C  -2.0389854250767776  -2.015940632791841  0.4912562833419403 
H  -1.8619130127668426  -1.8492165108145995  1.4101568590026907 
