74

Pd  0.0  0.0  0.0 
N  0.21194614231414222  1.9302540801133183  -4.5662577441133e-15 
N  2.7270926510605493  0.8429045314138317  -0.7001836105506787 
N  2.7676886649694783  -0.8429290181379161  0.6216402910566649 
C  1.95457533678607  0.011148767585077433  4.342382253592175e-15 
N  0.23347852089978816  -1.9414028476983958  2.377532783289397e-16 
C  1.0289438681259573  4.005565279981734  -0.8651372721823132 
H  1.61901278385149  4.458982173579592  -1.4232153897380553 
C  1.0870758455372629  2.628105339782764  -0.7629453138426028 
C  4.0525069626236725  0.49508475751105524  -0.5346458275950139 
H  4.786813922771952  0.914172710218959  -0.9228950596263089 
C  2.1496664740163958  1.881718260507292  -1.531980933407101 
H  1.7598691657244396  1.4841088565966276  -2.3263563297847525 
H  2.843729101803792  2.499070601850876  -1.812367123057109 
C  -0.638922214228236  -2.6179781465298744  -0.7667469350177913 
H  -1.2722283087109247  -2.1372801125579177  -1.2491720699626634 
C  2.2270684679569173  -1.9090487068692448  1.4415048846826577 
H  1.8239783829204752  -1.538537737423493  2.2421465678753854 
H  2.937303993553221  -2.512174069812416  1.7100580912462913 
C  0.08607661118774224  4.708334801145237  -0.12894176423797235 
H  0.018977315859194932  5.632600623063688  -0.20006978262611888 
C  4.084178758347952  -0.5531029271342645  0.283666903036426 
H  4.842400568340125  -1.0064563217304694  0.5745596263216429 
C  -0.6400630320990985  -3.990727768621587  -0.8682976296567009 
H  -1.2623664629757323  -4.4223632245072215  -1.4071462940714614 
C  1.190248605909684  -2.6582781793871653  0.6433410473817717 
C  -0.6597100254776826  2.64207298111193  0.7506488642045568 
H  -1.2283901531337647  2.1802592979420727  1.3239737410816663 
C  0.2855638472269051  -4.7095207540264745  -0.16941341578294974 
H  0.2793654794184045  -5.638889911132032  -0.1968757546748929 
C  1.2245393519277137  -4.04059864797777  0.5758177413832197 
H  1.881627288204821  -4.513910035830453  1.0329023660732866 
C  -0.7465712393031703  4.003291766692252  0.7083601267441213 
H  -1.3642486526898592  4.450397770237239  1.2410868621216133 
C  -2.4381352796355418  0.06505003199342264  -2.4536600267274715 
C  -2.069942848763168  0.03006926762561945  -3.825269858265785 
H  -1.1526287892203828  0.06790852169638739  -4.0683265533320085 
C  -3.0229629721491516  -0.05818497133546545  -4.791608196389026 
C  -4.45059628475394  -0.1245441936253157  -4.3827429027309615 
C  -4.801887319182532  0.1240469993470153  -2.9709801436575063 
C  -3.8102716932967162  0.1614624167239816  -2.047983487628052 
H  -4.025850205965865  0.25120360112889384  -1.1262261634385617 
C  -2.633629728472712  -0.13486769218930683  -6.259812141926219 
C  -1.1429130428320275  0.131230845864621  -6.473939653465572 
H  -0.9309612362474409  1.0452793926413475  -6.194238338093416 
H  -0.924489923680236  0.021016609531556332  -7.4231637277123 
H  -0.6185273218066069  -0.5038409392326635  -5.941134038481998 
C  -2.9231696244108463  -1.5444331274120013  -6.77979177853293 
H  -2.3487833584686224  -2.1884357865417345  -6.3138767084495475 
H  -2.7410395619322556  -1.5817906120031415  -7.7420464998445935 
H  -3.8628602600929454  -1.7657606986749443  -6.61525754072744 
C  -3.4260535143291113  0.895214729420543  -7.101642889938822 
H  -4.38318567058738  0.800096545023609  -6.91666668483821 
H  -3.2604881036128264  0.7348430834866605  -8.054109944463452 
H  -3.1348920166478265  1.8016758285254697  -6.867993669787088 
C  -6.274807141793959  0.3044115355770772  -2.5850793659583706 
C  -7.012591489128866  -1.020044773456241  -2.7179918269595076 
H  -6.6037812303523005  -1.683357922398909  -2.122491492149511 
H  -6.956864899993326  -1.3342256001197392  -3.644825520466803 
H  -7.953011190803936  -0.896904155514198  -2.4713033130107824 
C  -6.910626051748869  1.386447930580719  -3.4796213792989152 
H  -6.843607221892533  1.1139103173093474  -4.418714684459282 
H  -6.437726122035844  2.235461422025017  -3.3526344987836456 
H  -7.853540330031937  1.4992057498220213  -3.23887126401372 
C  -6.417848750383607  0.7797699164744426  -1.1377080528798187 
H  -7.361756203559446  0.9568801599193028  -0.9429384671996549 
H  -5.898735468465537  1.6009410925552408  -1.0102196215995283 
H  -6.085085165247154  0.08549590858083146  -0.5314616191826953 
N  -1.498279158438333  0.04433069818876159  -1.5093412136908722 
O  -5.317038787827565  -0.40821032703731003  -5.215777988200113 
O  -1.7680274873011528  -4.496403249731884e-15  -0.23197251269884656 
O  -0.23197251269892716  -4.440892098500626e-16  -1.7680274873010733 
N  -3.3306690738754696e-16  -2.220446049250313e-16  3.0971743285133257 
C  0.0  0.0  1.95 
