70

Ni  0.0  0.0  0.0 
P  1.2681217370583944  -1.5722491087610757  3.37891137203665e-15 
N  1.2681217370583948  1.5722491087610766  4.458332553088119e-16 
C  2.705716560262173  -1.033964955643068  -1.0224489008257496 
C  3.5923056849616684  -2.1021608608857267  -1.6211673421547845 
H  3.170395741422518  -2.445722302256583  -2.4236775698441213 
H  3.6676714166755424  -2.835368571786188  -0.9903092684493308 
C  4.991894790445165  -1.6091921794719086  -1.9726222538533527 
H  5.493245069061053  -1.4469711239287575  -1.157843463462826 
H  5.457299823703501  -2.290508978464467  -2.4816413737578644 
C  4.917848033715975  -0.3477382922041047  -2.7742007641159754 
H  4.4075807532289275  -0.5022869630514839  -3.5842338627012666 
H  5.812236333186848  -0.06683620897887359  -3.027908074632119 
C  4.2578689966470336  0.7334938551237219  -1.9510211578243455 
H  3.9916912300622736  1.4550415943963757  -2.5420434133498633 
H  4.908549875372238  1.0905991998629077  -1.327695170222248 
C  3.0371594095791252  0.26954071567828103  -1.1676101300495 
C  2.432658877038739  1.4239671420543443  -0.4451898560794086 
H  3.0042737427183948  2.14331131830337  -0.30206518514302033 
C  0.9665624704030668  2.800372419017906  0.8292955224153407 
C  2.200559004433078  3.382542022358476  1.4917237577346398 
H  2.581524108865528  2.7328241854662356  2.0869924463357274 
H  1.9568570656592272  4.167758342800738  1.9868228439274855 
H  2.843722099751891  3.616269990752472  0.8182298827733591 
C  0.37567547552444747  3.8680410477651384  -0.1169806098380038 
H  -0.4084768316606302  3.517600785512953  -0.5442955659639933 
H  1.0271492773764728  4.100827276080068  -0.7832422456894125 
H  0.14288407633920608  4.650056832126981  0.38905998880436 
C  -0.05665110652017025  2.4162425844804853  1.883465217586996 
H  0.3166147096530101  1.752392686786818  2.467210199414409 
H  -0.8398676450516758  2.0611939112839837  1.454176208372727 
H  -0.29799700375493177  3.193075894923535  2.3938258309517484 
C  0.6644977373108241  -3.233376728708026  -0.6887270266064343 
C  1.5644597486181788  -4.46660581384192  -0.7215566136197344 
H  1.0828659090652153  -5.204717779390727  -1.1018792924311818 
H  1.835994182968152  -4.688404425815559  0.17156656192148612 
H  2.340119534202562  -4.281726205146162  -1.2564728755857628 
C  -0.5785512353074109  -3.633932420863105  0.14696932922800812 
H  -0.9201583516927909  -4.473185909796402  -0.1690658734760059 
H  -1.255820730224819  -2.9586813336886406  0.05574986571250978 
H  -0.33065091728892915  -3.7164764142270226  1.0709941186605698 
C  0.22605846580904387  -2.9429534570676874  -2.1485801214398905 
H  -0.09310268619389084  -3.7523932353499183  -2.5530727225917333 
H  0.9766066785438626  -2.6097448980163684  -2.6471090037882896 
H  -0.4751975003219906  -2.2869611818914444  -2.1479597387058784 
C  2.021089344804228  -1.8035229622323814  1.7278504120398113 
C  2.8312279346257174  -0.5779948514113573  2.1180704843958402 
H  3.208029831007081  -0.7078942031501766  2.991384889006948 
H  2.2663943794858277  0.19450015795586809  2.1206347563727923 
H  3.5435400665388377  -0.4519074464986513  1.4806391915871204 
C  3.379491339769925  -2.6255703227924725  1.662280776769507 
H  3.7370073557642485  -2.7237819224299353  2.547734010997164 
H  4.01109289092435  -2.157149036435163  1.1120246281744102 
H  3.211045941493764  -3.493166362376102  1.287495091479377 
C  0.6865237775490354  -1.7665932163820213  2.7506638019445173 
H  0.8790766743929266  -2.2832449578100014  3.5393044488785055 
H  -0.07045241856923945  -2.1449513510345875  2.298474936034969 
H  0.4990946762038495  -0.861663926187583  2.9969964260874264 
Br  -1.5839191898578664  1.5839191898578664  0.0 
C  -1.2937473829822488  -1.2398794889499034  -0.459800567 
C  -1.601562203225019  -1.4938654694550033  -1.7919791134 
H  -1.1309417375171225  -1.0428217585005106  -2.480879663 
C  -2.60218398542082  -2.411889969420291  -2.121542410022 
H  -2.8231586547736818  -2.5626138747145775  -3.032700502 
C  -3.2683208079706407  -3.09759503004543  -1.14306436557 
H  -3.9596020908062854  -3.707191723557817  -1.368328076 
C  -2.9347449854640226  -2.896087320001541  0.14198826503 
H  -3.3668350933519986  -3.405606940434718  0.81710224434 
C  -1.9675509241539992  -1.9516175659140573  0.5112421903 
H  -1.7755298364628027  -1.8022912010877177  1.4301324877 
