27

Co  0.0  0.0  0.0 
O  1.1644723923305356  1.346849675167945  1.9199511067137438e-16 
N  1.1644723923305356  -1.346849675167945  0.0 
C  2.238113732985748  0.7247704777285395  -0.4747071031165026 
C  1.1729261680120717  -2.6836405978635254  0.05534494263639716 
H  0.4316406213449041  -3.1305686931796854  0.4480373870753571 
C  2.270779026296957  -0.7030528870134856  -0.4884208812120188 
C  3.352183111551558  1.4023992152386817  -0.9178877478229548 
C  4.520711941804807  -0.6842870065548159  -1.4812620857583731 
C  4.455712001471531  0.6900076115652001  -1.4143671654502792 
H  5.202532901283572  1.1874340410711206  -1.724540956788124 
C  3.3131259639419657  -2.8259758402699164  -0.9782054829698683 
H  4.021521128429095  -3.3443259745660443  -1.33878527886315 
C  3.394198819478703  -1.4132908724669988  -1.0047828010961826 
C  2.2324353482814008  -3.4472114320561094  -0.44247295388349545 
H  2.1955726319042785  -4.395252403919417  -0.40613804216248267 
C  3.3781976010969825  2.8996330024826404  -0.86052667505754 
H  2.7889452337040326  3.263236598361991  -1.5538316891641952 
H  4.294717404482899  3.2145061637707544  -1.0113857891404985 
H  3.0717323611243406  3.1984337056493226  0.020503889948934262 
C  5.727295210451347  -1.4049998729546676  -1.9958426528495858 
H  6.354278444367193  -0.7579614164236279  -2.3812430033403094 
H  5.455142130963123  -2.046712323078122  -2.6854396675484935 
H  6.162769695427263  -1.8822584726717053  -1.2587167192866118 
Br  -1.5909902576697317  1.5909902576697317  0.0 
O  -1.2303657992645929  -1.2303657992645929  0.0 
H  -1.8100950507259972  -1.8100950507259972  -5.551115123125783e-17 
