62

Pd  0.0  0.0  0.0 
P  1.5524594656544175  -1.442903187154287  6.664773360893929e-16 
N  1.5524594656544175  1.442903187154287  -8.428384917378951e-16 
C  2.1396466209225506  -4.020371885754041  0.8664810283131505 
H  2.5017927036819527  -4.1695794430709  0.023309195540275583 
C  2.1906660597125467  -5.014753835820786  1.8139036184211983 
H  2.5733216834059003  -5.835209498085127  1.6025571731843873 
C  2.251479624313755  4.827096450065043  1.0277242174130885 
H  1.5794326827107017  4.796361532854512  1.6701766850292206 
C  1.5562964064904672  -2.800287332838187  1.1546543634053599 
C  1.7239377922450003  -2.0987848834629985  -1.687663693973706 
C  2.9537471650491245  -2.149656259071202  -2.3316072394083114 
H  3.7239345146887897  -1.8688295455346193  -1.891018833501738 
C  1.380158851550871  2.685148253183333  0.2544843498253457 
H  0.5301860845009825  2.9309638790393695  0.5405667039798568 
C  2.3772517392641292  3.7834816681406744  0.14459398236851428 
C  4.10721865747073  5.997111867613276  -0.024458263679033733 
C  1.682978149367067  -4.807210517831025  3.062863284241858 
H  1.7093154810933784  -5.489484566959403  3.6939638204827396 
C  3.1044571830212617  5.937264744279723  0.9896765780401011 
C  3.3786885030056344  3.825090897737296  -0.8670439865904237 
H  3.4688906567235662  3.1237185471807045  -1.471593271048995 
C  3.041946368775677  -0.4687475941015284  0.33459672137413754 
H  3.165590064847719  -0.3671759458407438  1.2912153740729326 
H  3.821556984431888  -0.9165266313592184  -0.029361740196316696 
C  3.026494872476703  -2.6125506694143277  -3.61613781356261 
H  3.8588242414928633  -2.6682669300170594  -4.0289868898334475 
C  1.0644254485094005  -2.5747978420001503  2.419623367063721 
H  0.6909620751132547  -1.7482557665390097  2.6241574625685224 
C  1.119004476257396  -3.5651060121679152  3.399779940183086 
H  0.7913240206594554  -3.4063462408683702  4.2554871529819955 
C  4.202512946508097  4.911266930857676  -0.9331538297511396 
H  4.851305560231527  4.940074899659784  -1.600004311727017 
C  2.8749043379453822  0.8882831945418309  -0.3123521627041042 
H  3.5644891790933855  1.4886434735349439  0.009489385679880972 
H  2.9729588910827784  0.8031279248786408  -1.2739305342670444 
C  1.9160345950999207  -2.9960830885861403  -4.31387145601691 
H  1.9815921250218802  -3.256784255753064  -5.20380283635382 
C  0.583214123464169  -2.5214644093172764  -2.3629857059848933 
H  -0.2452163560513021  -2.488348227008303  -1.9425362927624907 
C  4.965173107907775  7.132552207329439  -0.07161657069404427 
H  5.636216687300697  7.178077444632127  -0.7143513428389019 
C  3.0106187177980264  6.998249035276583  1.931394543623453 
H  2.3929624453176372  6.948076046787466  2.625320368399941 
C  0.681615847061496  -2.9904338772789862  -3.663216761956406 
H  -0.07631166423679625  -3.3020712026402452  -4.103096251201969 
C  3.821280784004274  8.08832766910513  1.8246454148929303 
H  3.719356896248671  8.795318636400651  2.4209138722737658 
C  4.809294100781119  8.161731731098289  0.824641435123563 
H  5.3591571155501185  8.90899777403115  0.7713380011945862 
Br  -1.654629867976521  1.654629867976521  0.0 
C  -1.35204078  -1.31992066  -0.4819701 
C  -1.63807002  -1.59921746  -1.81393823 
H  -1.15796809  -1.15933936  -2.50351594 
C  -2.63068217  -2.5263265  -2.14228996 
H  -2.83682226  -2.69439953  -3.05388981 
C  -3.31015444  -3.19615732  -1.16198741 
H  -3.99601236  -3.81199015  -1.38686634 
C  -2.99747104  -2.9701089  0.1242356 
H  -3.43865917  -3.46858118  0.80170842 
C  -2.03898543  -2.01594063  0.49125628 
H  -1.86191301  -1.84921651  1.41015686 
