62

Pd  0.0  0.0  0.0 
O  0.17695940453300862  2.1038216136249988  7.688294445529209e-15 
C  1.2082801134076546  2.8451050975199177  -0.274650818223626 
C  1.1409294438703808  4.216223323544841  -0.5922485788818981 
H  0.30738335416649215  4.6246889236491295  -0.6481254960373812 
C  2.2503012282688424  4.9561138242721325  -0.8188082419159297 
H  2.134781318491369  5.85639538538816  -1.0180852128872246 
C  3.5142957170591194  4.478556100494418  -0.7731950555763081 
H  4.251687331870186  5.024300340412459  -0.9301202957469357 
C  3.64748471722191  3.1630895856028056  -0.48611747297092234 
H  4.50367177343892  2.8086313407431023  -0.40267894819112326 
C  2.5131361434849717  2.282754734244545  -0.3059873734733528 
C  2.776592111765126  0.8749737445783781  -0.04864352195923641 
H  3.659340933260281  0.6163765810081296  0.08691578293104557 
N  1.8908577663946509  -0.014236656396858054  -3.0253577421035516e-15 
N  2.4245589337061766  -1.3084635350524885  0.14374272355711995 
C  1.562154863835858  -2.338853465066563  0.09016154778895172 
O  0.3321828290723407  -2.08958495722814  -4.6351811278100286e-15 
C  2.0500081230069567  -3.681366260169433  0.19352693126531897 
C  1.1222458710240117  -4.688031791542484  0.0687997019168243 
H  0.21909215246598224  -4.483496275506056  -0.01571493193149484 
C  1.538818170223594  -6.002044129256015  0.06919451350909503 
H  0.924158709032649  -6.687894794555667  -0.0588439247681711 
C  2.860838816509231  -6.289878146200927  0.26164151786059286 
H  3.122259559265671  -7.182826751063231  0.29134276920014446 
C  3.7953146560827236  -5.341795249206986  0.40473454942046483 
H  4.68779607737094  -5.564745788739266  0.5395905080490453 
C  3.3974270399466153  -4.038290413869857  0.34937897898492953 
H  4.038253613863419  -3.3668255134926146  0.41582624923309175 
C  1.6659656953623156  -0.05701177145674166  -2.453337745270728 
H  2.451338918161416  -0.03657819799505157  -1.91852418898615 
C  1.7779732351118818  -0.14454277221520487  -3.8232610441986496 
H  2.629389879136558  -0.17455598120379298  -4.242404152890675 
C  0.61535050327534  -0.1882103789592734  -4.57129457522398 
H  0.6766435922428585  -0.2740573865517727  -5.515776093588589 
C  -0.6203297588478177  -0.01937766199533509  -2.6735461689588096 
C  -1.9133958875390862  0.02135765529663094  -1.9736851607889623 
C  -4.167123080063064  0.08565258102333988  -1.9594772684774764 
H  -4.997256514663842  0.0948542495097961  -2.420817728501296 
C  -2.9726126538695636  0.062353408523175086  0.07058793743981351 
H  -2.951423772556236  0.0748898832109613  1.0205603886777954 
C  -4.177661506664036  0.10707443469992024  -0.575517953414395 
H  -4.994285324899926  0.15178318052250422  -0.09111329041366423 
N  0.45050371568783437  -2.3602976499062282e-15  -1.8599536505384897 
N  -0.5931446911732337  -0.11369653823921427  -4.003069802325152 
N  -1.8105037156878339  5.567950630949824e-18  -0.6200463494615105 
N  -3.04525612912756  0.05351933099359105  -2.666643478530851 
N  -1.038006688692447  0.25815580699759666  2.7858195460403885 
N  1.022307545269277  -0.300154851152639  2.7842715374595026 
C  0.0  0.0  1.95 
C  -0.6738263304235242  0.10984718119234971  4.117661228885192 
H  -1.2310458602779875  0.2286938480120021  4.877670212604878 
C  0.6259727008966647  -0.23665875576051554  4.116965646025339 
H  1.1682269982700246  -0.4052711801153157  4.878350908118927 
C  -2.364368269994605  0.6543059137099002  2.3264602437535324 
H  -2.3527942645827253  0.7649057272387656  1.3519523455576758 
H  -2.6170678813221535  1.5020298411443254  2.747885562511268 
H  -3.0141593624786163  -0.03866397385787518  2.568944080437011 
C  2.3895297128683977  -0.5865723272498308  2.3534744926557165 
H  2.4129265264130892  -0.6753740313915226  1.377333818133091 
H  2.693383754925015  -1.422202521406037  2.7651334288399285 
H  2.9789214191295947  0.14695932263879086  2.628074757044137 
