58

Pd  0.0  0.0  0.0 
P  1.4324620335282878  1.5620987556809591  -2.523033189894234e-15 
C  3.0440981281634434  0.6824961601324937  0.061825095014987314 
H  3.777016624882791  1.3403371969189528  -0.04440798592673878 
H  3.145530872113912  0.2561281967897009  0.9491096425472972 
N  3.166028562216689  -0.34282456890284774  -0.9804497784526828 
C  2.6114148328069713  -1.561200371379136  -0.6749722586733695 
N  1.4324620335282887  -1.5620987556809587  -1.1102230246251565e-16 
C  0.9883595182566379  -2.7408879604628877  0.5120160218381707 
H  0.21373770893926558  -2.7325757843262783  1.061319007682758 
C  1.6092842505894907  -3.946164904800032  0.2716118741478624 
H  1.2821035046429325  -4.748284306946147  0.6612059631464206 
C  2.7271280234020887  -3.958974094953491  -0.5544572054282677 
H  3.131378299922495  -4.783795883789966  -0.7983748771820233 
C  3.2455135592396998  -2.773466390485268  -1.0176177811261984 
H  4.02271686200399  -2.7706035433165246  -1.5630808782082983 
C  4.418815047659955  -0.3200302482041679  -1.736793867366356 
H  5.149394323560944  -0.6447423562929313  -1.1696603130032335 
H  4.611337642792899  0.597913367578893  -2.0225774368842595 
H  4.335724015575258  -0.8964585640999034  -2.5248716915821605 
C  1.2722197562386612  2.3031145498427037  1.7153454245054944 
C  1.2938234022092943  1.1290280951098877  2.710112215916284 
H  1.215495054258211  1.4739791380835452  3.6245288539203537 
H  2.136928311304777  0.6383303897232302  2.6172028827608496 
H  0.5435024942142934  0.5281145859055332  2.5222216108257878 
C  -0.05808393325683503  3.044854072255232  1.875658351638569 
H  -0.11468286018316554  3.423821937025048  2.7772430725287314 
H  -0.7992542832697835  2.419629641694664  1.7385408338230084 
H  -0.1119073663009702  3.7657425569970977  1.2135634486058193 
C  2.4380155464390008  3.2488249760417247  2.046266404997277 
H  2.316565537553323  3.6131130518951204  2.9482130182359576 
H  2.457873539263055  3.9829678276568137  1.3967484348505992 
H  3.2830163524841796  2.753306551111816  2.0047641359268633 
C  1.6424684711850601  2.8371384692435946  -1.3654376679222224 
C  0.6149133197730436  3.978778995179863  -1.2844229757570926 
H  0.7730767119918975  4.613268848267248  -2.014849513946249 
H  0.706327712932725  4.440707261479163  -0.4241623260020427 
H  -0.28909593394379485  3.6105091096122095  -1.3627954235837332 
C  3.04833573118821  3.4502268425087754  -1.372371196485438 
H  3.1135537847572596  4.10978308775453  -2.0948573311939276 
H  3.7118651750942027  2.743363268112894  -1.5153024186242723 
H  3.217441167448359  3.888908131068714  -0.5122833123162243 
C  1.4414131916304964  2.0805707390012076  -2.688972126906635 
H  1.5432138206898438  2.702676611927515  -3.439378053584803 
H  0.543684529215249  1.6897590231735025  -2.7084490735347013 
H  2.10971858555601  1.3673384443411194  -2.762838454173977 
Br  -1.654629867976521  1.654629867976521  0.0 
C  -1.3788582233137676  -1.3788582233137676  0.0 
C  -2.618821778986925  -1.1522995256591737  0.5874691967409313 
H  -2.8106553971707884  -0.30966242518610043  0.9782000501948407 
C  -3.5854032518711887  -2.161278806785389  0.6049610958635797 
H  -4.421117162155692  -2.007227978208148  1.0287619599160838 
C  -3.3399450833386255  -3.3715361338635086  0.016423527177974573 
H  -3.9908757182151104  -4.061238805801311  0.045080339651694 
C  -2.164680252095028  -3.57422256025893  -0.6007549227026177 
H  -2.0132444416912625  -4.3986257169530365  -1.0474288760065327 
C  -1.1561711193052586  -2.601214672555715  -0.5998012209931929 
H  -0.3196784027493984  -2.7832859823079534  -1.0129111498427692 
