46

Co  0.0  0.0  0.0 
N  4.626868041422648  0.6643029240518412  0.6949574758763961 
O  1.1392098884753428  -1.3152189285438367  -4.945201037008145e-15 
O  1.1392098884753423  1.3152189285438376  -1.9374247045021725e-15 
C  2.27607351582078  -0.7281938004499127  0.24959445467662025 
C  2.2885255614149416  0.7073066694911044  0.2398683372786373 
C  3.4702550277725996  1.3880195535363704  0.48686454744565094 
C  3.5280280592196154  2.883921245111229  0.5822051263242021 
H  3.9735083580797843  3.1406830835177706  1.4168332061690898 
H  2.6185220684204698  3.2476808516808298  0.5717103024187205 
H  4.031545751410606  3.240513216091496  -0.1793724402329438 
C  4.621735597131192  -0.6892829477474954  0.7334626142455096 
H  5.433399823327282  -1.1515832285632406  0.9068914880560773 
C  3.469633108867276  -1.4096837718513737  0.5283505249710052 
H  3.481999570148406  -2.3592126547596126  0.5746053750779383 
C  5.901895371066393  1.3587699440872485  0.8557381859902591 
C  6.553817695935463  1.8482575541179034  -0.26792902985429545 
H  6.175098858801876  1.7384961624081379  -1.1318034068849585 
C  7.769377986833761  2.502705997125779  -0.10829496508157474 
H  8.223033287286732  2.8373907484221714  -0.8732349141106579 
C  8.336084686273676  2.6761035015644454  1.1560797350229362 
C  7.652904695375511  2.178025017607949  2.26262342320519 
H  8.024199723832417  2.2904355120065407  3.1302553685554404 
C  6.433492986180436  1.5180367896700726  2.1206292949412244 
H  5.974937492639622  1.1836168840145396  2.882221414152621 
C  9.678143372087968  3.3501892988100628  1.32487624500527 
H  9.833939334070635  3.5257809246511607  2.287038169612735 
H  9.663415899048893  4.221554335556341  0.856030636863253 
C  10.831194447848851  2.5084195021833127  0.7781304209026078 
H  10.792219727954931  1.6064895464508813  1.1848600069443214 
H  10.718322232625962  2.404001555467744  -0.20007610914839366 
C  12.19718497832187  3.1161738103462806  1.0553439515380674 
H  12.357728327103006  3.1184516896673427  2.031988541154977 
H  12.203293635187828  4.056383978526496  0.744753781117562 
C  13.328914523663597  2.3538318547677592  0.36454233821818377 
H  13.347197018976729  1.4297837334823054  0.6898522211205489 
H  14.184383839357862  2.7875761140840405  0.5646870544006574 
H  13.180094777306971  2.3562322688216355  -0.6042938765811751 
C  -1.3152186130069785  1.3152186130069785  0.0 
C  -2.3346843166590805  2.382526009713224  -0.24117738288086332 
O  -1.1066549908454293  0.8856039725630416  1.105330414956125 
H  -2.359982107347781  2.6077101720093383  -1.2096394135445696 
H  -3.2326901071671186  2.053952791581464  0.055166860425080566 
H  -2.0932424806225023  3.197461056774846  0.29031952104422765 
S  -1.5132085117392118  -1.5132085117392118  0.0 
H  -2.2188211427202624  -2.2188211427202624  1.1102230246251565e-16 
