88

Fe  0.0  0.0  0.0 
O  0.10391662856241712  2.0807962191343106  8.349404397900887e-15 
C  1.1087386642247603  2.857620706838242  -0.2746508182236248 
C  0.9935776868877181  4.225553180216817  -0.5922485788818965 
H  0.14628412707609084  4.60467961510489  -0.648125496037379 
C  2.076451865879002  5.0037094765737  -0.8188082419159276 
H  1.9295829543358305  5.899411023777135  -1.0180852128872222 
C  3.3563428875849306  4.570555439551651  -0.7731950555763065 
H  4.07423910404648  5.1417018230538  -0.9301202957469336 
C  3.535359871906178  3.260538500390185  -0.48611747297092117 
H  4.403395776449597  2.936176679261279  -0.40267894819112204 
C  2.4324255559133636  2.3411517309289  -0.30598737347335164 
C  2.7448518819426813  0.943422804100917  -0.04864352195923605 
H  3.636087867564153  0.7157906605205611  0.0869157829310457 
N  1.8906900974603302  0.023842403210745315  -3.0005220187655243e-15 
N  2.4692340151247834  -1.2509701652705378  0.14374272355711956 
C  1.6433153884772684  -2.3108298775721146  0.09016154778895079 
O  0.40539327397725267  -2.1046386223450555  -5.348882379135363e-15 
C  2.1777244814899923  -3.6354990169439434  0.1935269312653171 
C  1.285659517596334  -4.673929750528257  0.06879970191682233 
H  0.3759177893137956  -4.501038442224501  -0.015714931931496368 
C  1.7478364214537296  -5.972603463846809  0.06919451350909278 
H  1.1574872372310332  -6.67948763329122  -0.058843924768173246 
C  3.079096990806689  -6.2141242848999285  0.26164151786059064 
H  3.3715219400008882  -7.09740547724902  0.29134276920014146 
C  3.979915957010067  -5.234006197908734  0.4047345494204634 
H  4.879634564349703  -5.42567376957696  0.539590508049043 
C  3.5367790605566034  -3.9451815000450767  0.3493789789849277 
H  4.15378147316257  -3.2517611130394863  0.41582624923309003 
N  0.47424350954033934  5.913581952269531e-16  -1.8729722471672827 
N  -1.8342435095403389  -5.521694976542376e-16  -0.607027752832718 
N  -0.39244184315240305  -0.3040777616907186  -3.92791506492965 
C  -2.9438307338518674  0.17436956885331553  0.09031028219948756 
H  -2.888255050856559  0.09686956456359788  1.0151757387901754 
C  -4.17880266714817  0.4614420143312267  -0.45729825043833383 
H  -4.933813783460607  0.5393791393033294  0.07856567706168094 
C  -4.252312235789576  0.6284084651820376  -1.8160209769754592 
H  -5.058884004670341  0.8480062121001709  -2.21962095367645 
C  -3.0932599966983583  0.4621319260921093  -2.583848196866709 
H  -3.1148890746795646  0.594173784737547  -3.5037675305863445 
C  -1.9218423219072387  0.10332796978895567  -1.9570340042001768 
C  -0.6090878618201668  -0.058541289087080436  -2.633882857750545 
C  1.056046513969562  -0.16460784847879922  -4.214968148157824 
H  1.3654762063995791  -0.9606876150632853  -4.6953041458484375 
C  1.649844017178524  -0.18024754583903738  -2.763140326048979 
H  2.017034589255279  -1.0728160666869424  -2.598239660891662 
C  2.740582147537009  0.8177171931459192  -2.5252396309579104 
C  4.077650058475648  0.44750011330618333  -2.706017631093802 
H  4.272001253540372  -0.43170445012146214  -2.942662784487964 
C  5.113809535454171  1.3352361190541187  -2.5476136464012407 
H  5.991389791885174  1.0609252915359684  -2.681769054152218 
C  4.839820483202246  2.6139643656027913  -2.193308183947293 
H  5.535229536809824  3.222115930484915  -2.090108269741774 
C  3.5456719487413677  3.0180030773974678  -1.9864980049809144 
H  3.366667540183549  3.895126796658022  -1.736074018854499 
C  2.519794360743536  2.130852302952212  -2.1486756170148826 
H  1.647035247420106  2.418284730378955  -2.003268534056419 
C  1.3474022987201242  1.0621355495004816  -5.052264267942619 
C  2.439650208447638  1.0657456551970639  -5.865806578356042 
H  2.9930832733426835  0.3187291962522053  -5.893713436767197 
C  2.737556369402144  2.1750747623972613  -6.6594058230531825 
H  3.497090401227239  2.17680084683664  -7.195689633299183 
C  1.9078537017596409  3.2583931192772564  -6.63920480937118 
H  2.0927214162068304  3.9888579123559844  -7.18321184446118 
C  0.8233875936201598  3.2804292445492953  -5.839410386109892 
H  0.2704373893058658  4.028232670350582  -5.833899677564884 
C  0.5136140124938756  2.1767248023448036  -5.006410792656 
H  -0.2263523584378535  2.196105928481756  -4.443045580879639 
C  -1.3873584595032522  -0.5023915490287585  -5.005040934204288 
H  -1.6925863018241756  0.36179171991246906  -5.323146454361046 
H  -2.155979290037315  -0.9767167260290475  -4.648257953482434 
C  -0.8104149784012984  -1.2937194202772555  -6.176799727556967 
C  -0.5863668300086711  -0.665224543086789  -7.390615115722448 
H  -0.7407485501149262  0.24667916075971316  -7.482140081759371 
C  -0.1349056745914372  -1.405441740725245  -8.46781337299433 
H  0.0025706287652522697  -0.9956790898849672  -9.291134729447354 
C  0.11434778209933194  -2.7556282599092543  -8.309243143312017 
H  0.40599752368617326  -3.263494929127999  -9.032520499883423 
C  -0.0639711736989601  -3.3311358382517984  -7.124441667421129 
H  0.13892254520253222  -4.232359024607773  -7.022723442875472 
C  -0.5384012893732657  -2.6254920258233376  -6.044179442161524 
H  -0.6712636383916772  -3.0511797653705988  -5.227753227116664 
N  -0.0067905356641118075  -0.028323019709330294  3.0491377288018944 
C  0.0  0.0  1.91 
C  0.00027657175523719546  0.001819105800837273  4.486687626461956 
H  0.6691269699749678  -0.6301874861933178  4.822689698594319 
H  -0.88445613311643  -0.24985076267754044  4.822392151648225 
H  0.22184312705033715  0.9065421627793524  4.793014627795678 
