75
Ligand ID: unq_CSD-PABSIY-03-a  ===  Stoichiometry: C39H32O1P2  ===  Charge: 0  ===  Donors: O-P-P
Cu  0.0  0.0  0.0 
C  -1.1484  1.6132000000000004  2.7444999999999995 
C  -2.3223  1.8247000000000004  3.4562 
H  -2.8601  1.0896000000000003  3.725599999999999 
C  -2.7023  3.1266000000000003  3.7718 
H  -3.4975  3.2735  4.268999999999999 
C  -1.9543  4.188600000000001  3.3787000000000003 
H  -2.2359999999999998  5.0709  3.5900999999999996 
C  -0.7910999999999999  3.9905000000000004  2.6746 
H  -0.2741  4.736600000000001  2.3962000000000003 
C  -0.37019999999999986  2.7066000000000003  2.3708 
H  0.4478  2.5718  1.9078 
C  0.41210000000000013  -0.7182999999999997  3.5915999999999997 
C  0.4294000000000002  -0.11389999999999967  4.834700000000001 
H  -0.05499999999999994  0.6882000000000001  4.9881 
C  1.1764000000000001  -0.7050999999999998  5.8694 
H  1.1756000000000002  -0.3162999999999996  6.7359 
C  1.9043999999999999  -1.8388999999999998  5.629700000000001 
H  2.4229  -2.2203  6.3295 
C  1.8965  -2.4343999999999997  4.3866000000000005 
H  2.4025000000000003  -3.2224  4.233300000000001 
C  1.1583  -1.8889999999999998  3.3773 
H  1.1492  -2.3044  2.5226999999999995 
C  -2.0529  -1.1200999999999999  2.2026000000000003 
C  -2.6182  -1.6110999999999998  3.3697999999999997 
H  -2.2507  -1.3629999999999998  4.210999999999999 
C  -3.7176  -2.4638  3.3221999999999996 
H  -4.1239  -2.7739  4.1216 
C  -4.207599999999999  -2.8472  2.0925000000000002 
H  -4.9428  -3.4475999999999996  2.0656999999999996 
C  -3.6700999999999997  -2.3918  0.8821000000000003 
C  -4.2058  -2.9193999999999996  -0.43100000000000005 
C  -3.5713999999999997  -2.1795999999999998  -1.5952000000000002 
C  -3.9734  -2.4135  -2.9083 
H  -4.714  -2.9882999999999997  -3.0601000000000003 
C  -3.3405  -1.8453999999999997  -3.9981 
H  -3.6378  -2.0450999999999997  -4.8779 
C  -2.283  -0.9930999999999996  -3.8075 
H  -1.8486  -0.5995999999999997  -4.5549 
C  -1.8437999999999999  -0.7030999999999996  -2.5078 
C  -2.5002  -1.3093999999999997  -1.4329 
C  -2.6197  -1.5237999999999998  0.9714 
C  -5.728199999999999  -2.8425  -0.4891000000000001 
H  -6.0104  -1.9055999999999997  -0.4264999999999999 
H  -6.1104  -3.3497  0.2583000000000002 
H  -6.0433  -3.2215999999999996  -1.3362000000000003 
C  -3.7953  -4.4069  -0.5352000000000001 
H  -4.0634  -4.7604999999999995  -1.4091 
H  -4.239  -4.9181  0.1734 
H  -2.8232  -4.4851  -0.4355000000000002 
C  0.8085  -0.15909999999999958  -3.474 
C  1.3874  0.7119000000000004  -4.3717 
H  1.0868000000000002  1.6122  -4.4239 
C  2.4075  0.2695000000000003  -5.1965 
H  2.7963  0.8664999999999998  -5.8248 
C  2.8667000000000002  -1.0317999999999996  -5.1176 
H  3.5663000000000005  -1.3277999999999999  -5.6878 
C  2.2935000000000003  -1.9081999999999997  -4.1886 
H  2.6066  -2.8024999999999998  -4.1187000000000005 
C  1.2739000000000003  -1.4656999999999998  -3.3787000000000003 
H  0.8848000000000003  -2.0579  -2.7475 
C  -0.8766  2.0719  -2.6239 
C  -1.5046  2.4222000000000006  -3.7896 
H  -1.6846999999999999  1.7570000000000001  -4.4432 
C  -1.8871  3.7501  -4.0323 
H  -2.3434  3.9748000000000006  -4.8333 
C  -1.5994  4.7232  -3.1033 
H  -1.8504  5.6248000000000005  -3.2671 
C  -0.9509999999999998  4.393000000000001  -1.948 
H  -0.7552999999999999  5.065800000000001  -1.3079 
C  -0.5746  3.0750000000000006  -1.7009000000000003 
H  -0.11080000000000001  2.8567000000000005  -0.8999999999999999 
O  -1.9970999999999999  -0.9978999999999996  -0.1719999999999997 
P  -0.5777999999999999  -0.04699999999999971  2.2355 
P  -0.38829999999999987  0.3761000000000001  -2.2325 
