3
Ligand ID: unq_CSD-PACKOU-02-a  ===  Stoichiometry: O2  ===  Charge: -2  ===  Donors: O-O
Cu  0.0  0.0  0.0 
O  -1.6003  0.9973999999999998  0.0714999999999999 
O  -1.4097  0.3104  1.1704000000000003 
73
Ligand ID: unq_CSD-OZUSEK-04-a  ===  Stoichiometry: C30H40P2  ===  Charge: 0  ===  Donors: P-P-C-C
Cu  0.0  0.0  0.0 
P  1.8900999999999994  -1.7729  -0.09820000000000029 
P  -1.9169  1.7410999999999994  0.06840000000000046 
C  -0.7771999999999997  1.3559  -2.9542 
C  2.3488999999999995  -1.5842999999999998  -2.9412000000000003 
C  0.02059999999999995  -0.8865999999999996  -2.4399999999999995 
H  -0.12819999999999965  -1.7431  -2.0558999999999994 
C  -0.9885999999999999  0.06559999999999988  -2.399099999999999 
H  -1.8233999999999995  -0.14619999999999944  -1.9995999999999992 
C  1.266000000000001  -0.6017999999999999  -3.0450999999999997 
C  2.6483999999999996  -2.2387999999999995  -1.725299999999999 
C  4.209500000000001  -0.16889999999999983  -0.004399999999998627 
H  4.7457  -0.6990999999999996  -0.6306999999999992 
H  4.8028  0.36300000000000043  0.5650000000000013 
H  3.6175000000000006  0.4291999999999998  -0.5080999999999989 
C  3.0942999999999996  -1.9165999999999999  -4.0977 
H  2.9113999999999995  -1.4656000000000002  -4.914599999999999 
C  1.5622999999999996  -3.4541999999999997  0.6416000000000004 
H  2.4445000000000006  -3.908  0.7614000000000001 
C  -1.8018  2.3972999999999995  -2.7592999999999996 
C  1.4112999999999998  0.6165000000000003  -3.6892999999999994 
H  2.2068000000000003  0.7947000000000006  -4.177 
C  -3.1258999999999997  4.192500000000001  -3.7022999999999993 
H  -3.3444  4.7547  -4.4368 
C  -2.1511999999999993  3.2287  -3.8360000000000003 
H  -1.7075999999999993  3.1236999999999995  -4.669699999999999 
C  4.0691999999999995  -2.8688000000000002  -4.064299999999999 
H  4.5493  -3.0877  -4.8546 
C  0.41389999999999993  1.5831  -3.6355000000000004 
H  0.5488  2.4155999999999995  -4.071899999999999 
C  4.361300000000001  -3.5246999999999997  -2.8575999999999997 
H  5.046400000000001  -4.1822  -2.825899999999999 
C  -2.4392999999999994  2.5699000000000005  -1.5099 
C  0.9207999999999998  -3.3247999999999998  2.0246000000000013 
H  1.495  -2.7804  2.6022999999999996 
H  0.8117000000000001  -4.2158  2.4189000000000007 
H  0.04300000000000015  -2.8966000000000003  1.9395000000000007 
C  -3.4294  3.5538000000000007  -1.4115000000000002 
H  -3.8655999999999997  3.6853999999999996  -0.5788999999999991 
C  -1.5359999999999996  3.3034999999999997  1.024000000000001 
H  -2.4013  3.7962000000000007  1.1191000000000013 
C  3.6512000000000002  -3.2082999999999995  -1.7177999999999987 
H  3.849100000000001  -3.6639  -0.9074999999999989 
C  3.3496999999999995  -1.1254  0.8848000000000003 
H  2.9547  -0.5449000000000002  1.5980000000000008 
C  -3.7907999999999995  4.3392  -2.4863999999999997 
H  -4.4893  4.977600000000001  -2.3971 
C  0.7220000000000004  -4.3216  -0.27919999999999945 
H  -0.15639999999999965  -3.9055  -0.40920000000000023 
H  0.6068000000000007  -5.2082999999999995  0.12140000000000128 
H  1.172200000000001  -4.4099  -1.145199999999999 
C  4.2116  -2.1208  1.6105999999999998 
H  3.6663000000000006  -2.6158  2.2567000000000004 
H  4.929100000000001  -1.6483999999999996  2.0821000000000005 
H  4.601500000000001  -2.7462  0.9647000000000006 
C  -4.4029  0.43379999999999974  -0.23269999999999946 
H  -4.4258  0.9017999999999997  -1.093 
H  -5.316599999999999  0.33060000000000045  0.1075999999999997 
H  -3.9976  -0.4504999999999999  -0.3520000000000003 
C  -3.5864  1.233600000000001  0.7548000000000012 
H  -4.092599999999999  2.0782000000000007  0.9245000000000001 
C  -0.6076999999999995  4.2097  0.2591999999999999 
H  0.26069999999999993  3.7700999999999993  0.15000000000000036 
H  -0.49019999999999975  5.0481  0.753400000000001 
H  -0.9913999999999996  4.4007000000000005  -0.6218000000000004 
C  -3.4776999999999996  0.5057999999999998  2.1118000000000006 
H  -3.0889999999999995  -0.38399999999999945  1.9761000000000006 
H  -4.370799999999999  0.4142999999999999  2.5060000000000002 
H  -2.9057999999999997  1.0230999999999995  2.716000000000001 
C  -1.0095  3.0762  2.4404000000000003 
H  -1.6422999999999996  2.5174000000000003  2.938600000000001 
H  -0.9097  3.9395000000000007  2.8939000000000004 
H  -0.1402000000000001  2.6270000000000007  2.3976000000000006 
21
Ligand ID: unq_CSD-OZUFAR-04-a  ===  Stoichiometry: C8H12  ===  Charge: 0  ===  Donors: C-C-C-C
Cu  0.0  0.0  0.0 
C  -1.3299000000000003  -1.3927  -0.8416999999999994 
H  -0.8855000000000004  -2.2073  -1.1566999999999998 
C  -1.2132000000000005  -0.33630000000000004  -1.7221000000000002 
H  -0.7128000000000005  -0.5419  -2.5399000000000003 
C  -2.3088  0.6773999999999998  -1.8971 
H  -2.2684  1.0287  -2.8008999999999995 
H  -3.1658000000000004  0.23399999999999999  -1.7911000000000001 
C  -2.2310000000000003  1.8086  -0.9371999999999998 
H  -3.1318  2.061  -0.6794000000000002 
H  -1.8287000000000004  2.5698999999999996  -1.3848000000000003 
C  -1.4417000000000004  1.5054999999999998  0.3038999999999996 
H  -1.0951000000000004  2.3014  0.7588999999999997 
C  -1.7286000000000001  0.4637  1.1472000000000007 
H  -1.5420000000000003  0.6519999999999999  2.0911999999999997 
C  -2.8524000000000003  -0.5259  0.9264999999999999 
H  -3.1419000000000006  -0.8651000000000001  1.7889000000000008 
H  -3.604  -0.059800000000000075  0.5277000000000003 
C  -2.4941000000000004  -1.6718000000000002  0.06310000000000038 
H  -3.2626000000000004  -1.9095  -0.4779 
H  -2.2798000000000003  -2.4331  0.624200000000001 
7
Ligand ID: unq_CSD-PABJIP-02-a  ===  Stoichiometry: C2H4  ===  Charge: 0  ===  Donors: C-C
Cu  0.0  0.0  0.0 
C  -0.5015999999999998  -1.0969  1.8392999999999988 
H  0.1897000000000002  -1.719  2.181 
H  -0.9468999999999994  -0.577  2.553399999999999 
C  -1.3265999999999996  -1.5856  0.8167999999999997 
H  -2.2892999999999994  -1.3669  0.8831999999999995 
H  -1.1510999999999996  -2.5107  0.5108999999999995 
39
Ligand ID: unq_CSD-OZOHAN-02-a  ===  Stoichiometry: C16H19P1S1Si1  ===  Charge: -2  ===  Donors: C-S
Cu  0.0  0.0  0.0 
C  -0.23309999999999853  -0.5985000000000014  -3.2803000000000004 
H  0.6850000000000005  -0.7929000000000013  -3.0007 
H  -0.464599999999999  0.3193999999999999  -3.0251 
H  -0.30629999999999846  -0.6942000000000004  -4.2533 
C  -3.1045999999999996  -1.542300000000001  -3.199 
H  -3.476799999999999  -0.690100000000001  -2.8908000000000005 
H  -3.6945999999999994  -2.274700000000001  -2.9244000000000003 
H  -3.030999999999999  -1.533100000000001  -4.1770000000000005 
C  -0.8453999999999997  -3.514900000000001  -2.8679000000000006 
H  -0.6380999999999997  -3.5662000000000003  -3.8246 
H  -1.5597999999999992  -4.151200000000001  -2.655900000000001 
H  -0.045700000000000074  -3.7360000000000007  -2.3476999999999997 
C  -1.4594999999999985  -1.5159000000000002  -0.5763999999999996 
C  -2.9954  -3.8530000000000015  -0.0343 
C  -4.176  -3.1927000000000003  -0.3556000000000008 
H  -4.2249  -2.249500000000001  -0.26040000000000063 
C  -5.281699999999999  -3.8915000000000006  -0.8126999999999995 
H  -6.0777  -3.4253  -1.0431000000000008 
C  -5.2258  -5.2605  -0.9333000000000009 
H  -5.988299999999999  -5.737400000000001  -1.2384000000000004 
C  -4.085799999999999  -5.9362  -0.6189999999999998 
H  -4.0550999999999995  -6.881900000000001  -0.7028999999999996 
C  -2.9662999999999986  -5.238900000000001  -0.1734000000000009 
H  -2.171099999999999  -5.714200000000001  0.038600000000000634 
C  -1.8160999999999987  -2.4583000000000013  2.178799999999999 
C  -0.7283999999999988  -2.290000000000001  3.0214999999999996 
H  0.14740000000000109  -2.4130000000000003  2.6767000000000003 
C  -0.8929999999999989  -1.9458000000000002  4.3596 
H  -0.13429999999999964  -1.8175000000000008  4.916500000000001 
C  -2.1564999999999994  -1.7946000000000009  4.869200000000001 
H  -2.2779999999999987  -1.5807000000000002  5.787699999999999 
C  -3.2341999999999995  -1.9495000000000005  4.058999999999999 
H  -4.1065999999999985  -1.8330000000000002  4.4145 
C  -3.0778999999999996  -2.2769000000000013  2.7179 
H  -3.8453  -2.3782000000000014  2.1654999999999998 
P  -1.4314999999999998  -3.021600000000001  0.46969999999999956 
S  -2.2833999999999985  -0.047900000000000276  -0.11240000000000094 
Si  -1.4054000000000002  -1.7912  -2.4467 
16
Ligand ID: unq_CSD-OZUMON-04-a  ===  Stoichiometry: C7H8  ===  Charge: 0  ===  Donors: C-C-C-C
Cu  0.0  0.0  0.0 
C  0.5121  1.2589  1.8255999999999997 
H  0.6416  2.0782  1.4044999999999996 
C  1.3497  0.2737  1.7945000000000002 
H  2.1684  0.2571  1.3559 
C  -0.7248  0.889  2.6478 
H  -1.3082  1.6121  2.9536 
C  0.0  0.0  3.7355 
H  0.619  0.5009  4.288399999999999 
H  -0.619  -0.5009  4.288399999999999 
C  -0.5121  -1.2589  1.8255999999999997 
H  -0.6416  -2.0782  1.4044999999999996 
C  -1.3497  -0.2737  1.7945000000000002 
H  -2.1684  -0.2571  1.3559 
C  0.7248  -0.889  2.6478 
H  1.3082  -1.6121  2.9536 
56
Ligand ID: unq_CSD-PACLIQ-02-a  ===  Stoichiometry: C16H36P3  ===  Charge: -1  ===  Donors: P-P
Cu  0.0  0.0  0.0 
C  2.5138  2.136899999999999  -1.0417000000000005 
C  3.0676000000000005  0.8574999999999999  -1.7030000000000012 
H  2.3263  0.25450000000000017  -1.9201000000000015 
H  3.682500000000001  0.41140000000000043  -1.0851000000000006 
H  3.545300000000001  1.0952000000000002  -2.524300000000001 
C  1.6605000000000008  2.8476999999999997  -2.0913000000000004 
H  2.2232000000000003  3.102599999999999  -2.8531000000000004 
H  1.2606000000000002  3.6516  -1.6980000000000004 
H  0.9503000000000004  2.2471999999999994  -2.397800000000001 
C  3.691700000000001  3.0021000000000004  -0.6025000000000009 
H  4.1791  2.5487  0.11709999999999887 
H  3.359300000000001  3.864799999999999  -0.2774000000000001 
H  4.290900000000001  3.146699999999999  -1.3630000000000013 
C  1.0175  3.046199999999999  1.5649999999999995 
C  -0.1783999999999999  2.6075  2.3987999999999996 
H  0.0691000000000006  1.830499999999999  2.9421999999999997 
H  -0.9203999999999999  2.3673  1.804499999999999 
H  -0.45419999999999927  3.3428000000000004  2.9856 
C  2.1828000000000003  3.4016  2.5054999999999996 
H  1.9302000000000001  4.1638  3.0663 
H  2.9734999999999996  3.6343999999999994  1.974499999999999 
H  2.3887  2.6319999999999997  3.0762 
C  0.6182000000000007  4.293699999999999  0.780899999999999 
H  0.2730000000000006  4.9727  1.3987999999999996 
H  -0.0768999999999993  4.0609  0.1294999999999984 
H  1.4010000000000007  4.649099999999999  0.3094000000000001 
C  3.7759  -0.7135999999999996  3.7101999999999986 
C  4.6485  0.3452000000000002  3.0227999999999984 
H  5.575800000000001  0.25450000000000017  3.3293 
H  4.3161000000000005  1.239799999999999  3.247399999999999 
H  4.613300000000001  0.21780000000000044  2.0513999999999992 
C  3.9494000000000007  -0.5518000000000001  5.2325 
H  3.462900000000001  -1.2651000000000003  5.694099999999999 
H  3.5961  0.3182999999999989  5.511699999999999 
H  4.9026  -0.6058000000000003  5.4596 
C  4.2574000000000005  -2.0886000000000005  3.2734999999999985 
H  4.0413  -2.2234000000000007  2.3267999999999986 
H  3.811400000000001  -2.7749000000000006  3.810699999999999 
H  5.226800000000001  -2.1499000000000006  3.3999999999999986 
C  0.8447000000000005  -1.7773000000000003  3.673 
C  -0.5587999999999997  -1.2357000000000005  3.4644999999999992 
H  -1.2124999999999995  -1.9366000000000003  3.6716999999999995 
H  -0.6647999999999996  -0.9538000000000002  2.5314999999999994 
H  -0.7035999999999998  -0.4685000000000006  4.0564 
C  1.0563000000000002  -2.9955000000000007  2.7783999999999995 
H  0.35380000000000056  -3.6572000000000005  2.9545999999999992 
H  1.9326000000000008  -3.3925  2.9669999999999987 
H  1.0181000000000004  -2.721  1.8379999999999992 
C  0.9824000000000002  -2.1817  5.1457 
H  0.9613000000000005  -1.3778000000000006  5.707699999999999 
H  1.8328000000000007  -2.6499000000000006  5.2783999999999995 
H  0.24110000000000031  -2.7724  5.3926 
P  1.4502000000000006  1.6174999999999997  0.41809999999999903 
P  2.1154  -0.3009000000000004  1.1100999999999992 
P  1.9609000000000005  -0.2789999999999999  3.3230999999999984 
27
Ligand ID: unq_CSD-PACVAQ-02-a  ===  Stoichiometry: C11H14Si1  ===  Charge: 0  ===  Donors: C-C
Cu  0.0  0.0  0.0 
C  0.7918000000000003  -1.7883  0.7759999999999998 
C  1.738900000000001  -0.8720999999999999  0.8551000000000002 
C  3.7156000000000002  -1.8908  2.922599999999999 
C  4.6066  -1.0187  0.16530000000000022 
C  3.6426999999999996  0.9744999999999999  2.2489999999999988 
C  0.690900000000001  -3.233  1.0759999999999987 
C  1.7309999999999999  -4.0829  0.7921999999999993 
C  1.6151  -5.4352  1.0184999999999995 
C  0.4703999999999997  -5.9496  1.5646000000000004 
C  -0.557599999999999  -5.1117  1.8609999999999989 
C  -0.46860000000000035  -3.7534  1.623899999999999 
Si  3.4353  -0.6993  1.5251000000000001 
H  3.0877  -1.7099  3.6267999999999994 
H  4.6089  -1.7863  3.2568 
H  3.5930999999999997  -2.7889  2.6083 
H  5.506500000000001  -0.9322999999999999  0.4903999999999993 
H  4.4605999999999995  -0.3837999999999999  -0.5407000000000011 
H  4.4725  -1.9068  -0.17239999999999966 
H  3.0061  1.0991  2.9567999999999994 
H  3.5007  1.6376  1.5700000000000003 
H  4.5318000000000005  1.0629  2.5992999999999995 
H  2.5221  -3.7413  0.4419000000000004 
H  2.3192000000000004  -6.0038  0.8011999999999997 
H  0.39610000000000056  -6.8618  1.7280999999999995 
H  -1.3357999999999999  -5.4593  2.2327999999999992 
H  -1.1822  -3.1928  1.8286999999999995 
