87
Ligand ID: unq_CSD-OZUCIW-03-a  ===  Stoichiometry: C41H42N3  ===  Charge: -3  ===  Donors: N-N-N
Cu  0.0  0.0  0.0 
C  -0.3623000000000003  -2.6795  3.5253 
H  -1.1370000000000002  -3.2362  3.4187 
H  -0.4537  -2.1525  4.324199999999999 
H  0.4210999999999996  -3.2313  3.5954 
C  -0.2272000000000003  -1.7517999999999998  2.3158999999999996 
N  -1.6223000000000003  0.05270000000000019  1.2242000000000002 
C  -1.4965000000000002  -0.8834  2.2173000000000003 
C  -2.6089  -0.8254000000000001  3.0463 
H  -2.7756000000000003  -1.3620999999999999  3.7863 
C  -3.4321  0.1943999999999999  2.5546 
H  -4.244400000000001  0.4698000000000002  2.9143000000000003 
C  -2.8105  0.7179000000000002  1.4311000000000003 
C  -3.2499000000000002  1.8573000000000004  0.5766000000000004 
C  -3.5356  3.112  1.1685000000000003 
C  -3.9854000000000003  4.1669  0.3538000000000001 
H  -4.1879  4.981199999999999  0.7532000000000001 
C  -4.1423000000000005  4.0466  -1.0242999999999998 
C  -3.8287000000000004  2.8129999999999997  -1.5861 
H  -3.9184  2.7068000000000003  -2.5059 
C  -3.3892  1.7306999999999997  -0.8285999999999998 
C  -3.349  3.3735  2.6358 
H  -3.4429000000000003  4.3125  2.8076000000000003 
H  -2.4729  3.0846  2.9015 
H  -4.0109  2.8883  3.1339 
C  -4.6274  5.2019  -1.8646 
H  -4.016500000000001  5.349  -2.5902000000000003 
H  -4.6770000000000005  5.992800000000001  -1.3235000000000001 
H  -5.498900000000001  4.9986  -2.2146999999999997 
C  -3.1213  0.4192999999999998  -1.5192 
H  -3.6382000000000003  0.37040000000000006  -2.3277 
H  -3.3658  -0.30569999999999986  -0.9384000000000001 
H  -2.1869  0.35550000000000015  -1.7340999999999998 
N  1.3304999999999998  0.06890000000000018  1.5291000000000001 
C  0.9965999999999999  -0.8424  2.5085 
C  1.8601  -0.7170999999999998  3.5779 
H  1.8492999999999995  -1.2203999999999997  4.3591999999999995 
C  2.7630999999999997  0.32120000000000015  3.2596000000000003 
H  3.4535  0.6363000000000003  3.7959 
C  2.4219999999999997  0.7851999999999997  1.9897000000000005 
C  3.0549  1.8600000000000003  1.1861000000000002 
C  3.2442  3.1450000000000005  1.7239 
C  3.8972999999999995  4.132099999999999  0.9760000000000004 
H  4.0228  4.9712  1.3531 
C  4.3652  3.8992000000000004  -0.3113999999999999 
C  4.1394  2.6395  -0.8445 
H  4.4215  2.4682000000000004  -1.7149999999999999 
C  3.5065999999999997  1.6169000000000002  -0.1379999999999999 
C  2.7720000000000002  3.4945000000000004  3.1084 
H  1.8774999999999995  3.1692  3.2325000000000004 
H  2.7846  4.4468  3.2197999999999998 
H  3.3529  3.0896  3.7561000000000004 
C  5.1491999999999996  4.9305  -1.0816 
H  5.217999999999999  5.734299999999999  -0.5613000000000001 
H  4.6991  5.1228  -1.9091 
H  6.028199999999999  4.5908999999999995  -1.2662 
C  3.4013999999999998  0.25429999999999975  -0.7824999999999998 
H  3.9129999999999994  0.24359999999999982  -1.5956000000000001 
H  2.4821  0.06459999999999999  -0.9813999999999998 
H  3.7436  -0.41259999999999986  -0.1825000000000001 
N  0.030899999999999928  -1.9964  -0.18619999999999992 
C  -0.0528000000000004  -2.6094  1.0539999999999998 
C  0.04379999999999962  -3.9697  0.9155000000000002 
H  0.018199999999999772  -4.6008  1.5966 
C  0.19189999999999996  -4.2235  -0.47529999999999983 
H  0.2808999999999999  -5.0557  -0.8778999999999999 
C  0.17639999999999967  -3.0040999999999998  -1.1135000000000002 
C  0.18999999999999995  -2.6658  -2.5694999999999997 
C  1.3796  -2.4391  -3.265 
C  1.3286999999999995  -2.0148  -4.6017 
H  2.1242  -1.8567  -5.0552 
C  0.1306999999999996  -1.8254000000000001  -5.2684999999999995 
C  -1.0525000000000002  -2.1252  -4.5826 
H  -1.8674000000000002  -2.0506  -5.0266 
C  -1.0391000000000004  -2.5345  -3.2459 
C  2.7291  -2.6734999999999998  -2.6173 
H  3.3932  -2.1426  -3.0613 
H  2.9613999999999994  -3.6016  -2.6889000000000003 
H  2.6864  -2.4234  -1.6911 
C  0.08429999999999982  -1.3043999999999998  -6.688000000000001 
H  0.9554999999999998  -0.9891999999999999  -6.9426000000000005 
H  -0.5449000000000002  -0.5815999999999999  -6.7453 
H  -0.18500000000000005  -2.0107999999999997  -7.279999999999999 
C  -2.3337000000000003  -2.851  -2.5393 
H  -2.3287000000000004  -2.4508  -1.6671999999999998 
H  -2.4284000000000003  -3.8028999999999997  -2.455 
H  -3.0696000000000003  -2.5004999999999997  -3.0469 
30
Ligand ID: unq_CSD-OZOPID-03-a  ===  Stoichiometry: C11H8Cl1N2O6S1  ===  Charge: -3  ===  Donors: O-O-N
Cu  0.0  0.0  0.0 
Cl  4.9799  2.8225000000000007  -3.5898 
S  3.4416  3.1384  1.6327000000000003 
O  1.2048  1.3696000000000002  0.6625000000000001 
O  -1.3349  -1.1078000000000001  -0.8986000000000001 
O  3.3129  2.0043000000000006  2.5578 
O  4.7883000000000004  3.6888999999999994  1.6810000000000005 
O  2.3999  4.127  1.8449000000000004 
O  -1.6098999999999999  -1.7840999999999996  -5.0501 
N  0.7886000000000002  0.3874000000000004  -1.7163999999999997 
N  0.5262  -0.046800000000000175  -2.8867 
C  2.0782000000000003  1.6913  -0.26039999999999974 
C  3.2276  2.4958  0.006200000000000205 
C  4.1203  2.825  -1.0048 
H  4.8764  3.3701  -0.8199999999999998 
C  3.8926  2.3434  -2.2984 
C  2.8151  1.537  -2.5936 
H  2.6816  1.2102000000000004  -3.4751 
C  1.9238  1.2098000000000004  -1.572 
C  -0.5380999999999999  -0.8472999999999997  -3.1416 
C  -0.6577  -1.1476999999999995  -4.5615 
C  0.4142000000000001  -0.6364999999999998  -5.4791 
H  0.19190000000000018  -0.8713999999999995  -6.4041 
H  1.2730000000000001  -1.0423  -5.237 
H  0.4782000000000002  0.3379000000000003  -5.3963 
C  -1.4544  -1.3640999999999996  -2.138 
C  -2.5891  -2.2592999999999996  -2.5288 
H  -2.9984  -2.6388  -1.7227999999999999 
H  -2.2531999999999996  -2.9842999999999997  -3.096 
H  -3.2588  -1.7417999999999996  -3.0227 
78
Ligand ID: unq_CSD-OZUZUG-02-a  ===  Stoichiometry: C32H35N8O2  ===  Charge: 1  ===  Donors: O-N
Cu  0.0  0.0  0.0 
O  -1.1553  -0.5095999999999989  -1.7773000000000003 
O  -3.1155  -2.6936  -1.9643000000000002 
H  -2.5191  -3.148199999999999  -1.7656 
N  1.4261999999999997  -1.583400000000001  -1.4149000000000003 
N  1.2560000000000002  -1.8674999999999997  -2.724 
N  2.075  -2.769400000000001  -3.2406 
N  -1.2059  -4.3858999999999995  -2.2658 
N  -1.4487999999999999  -4.397199999999998  -3.5866000000000002 
N  -0.5983999999999998  -5.109499999999999  -4.3347 
N  -3.7361  0.02400000000000091  -2.4412000000000003 
H  -3.1174  -0.4206000000000003  -2.0344 
N  -4.4932  1.1837000000000018  0.9893000000000001 
H  -3.7033  1.369600000000002  1.0161999999999995 
C  -0.8681999999999999  -0.6193999999999988  -3.0700000000000003 
C  0.2791000000000001  -1.2444999999999986  -3.5843000000000003 
C  0.5127999999999999  -1.3091000000000008  -4.9646 
H  1.311  -1.715399999999999  -5.2826 
C  -0.3889999999999998  -0.798099999999998  -5.8658 
C  -1.5351  -0.1811000000000007  -5.3726 
H  -2.1751  0.17190000000000083  -5.9792000000000005 
C  -1.7550999999999999  -0.07569999999999766  -4.0156 
C  -2.9095999999999997  0.7482000000000006  -3.5013000000000005 
H  -3.4985999999999997  0.9871000000000016  -4.261 
H  -2.5576999999999996  1.5890000000000022  -3.1156 
C  -4.7984  -0.8842999999999996  -3.0057 
H  -5.2804  -1.3297999999999988  -2.2647000000000004 
H  -5.4532  -0.3484999999999978  -3.5188 
C  -4.1922999999999995  -1.9216999999999977  -3.9022 
C  -3.2605999999999997  -2.7866999999999997  -3.3061000000000003 
C  -2.5107  -3.6281  -4.1348 
C  -2.7398  -3.652000000000001  -5.5175 
H  -2.2127999999999997  -4.217199999999998  -6.0703000000000005 
C  -3.7218999999999998  -2.8665999999999983  -6.0832 
C  -4.4193999999999996  -1.9749999999999979  -5.2557 
H  -5.0651  -1.3924999999999983  -5.6402 
C  2.4510000000000005  -2.3934999999999995  -1.0620000000000003 
C  3.1071  -2.5662999999999982  0.18520000000000003 
H  2.8546000000000005  -2.0791000000000004  0.9600999999999997 
C  4.1313  -3.483599999999999  0.20040000000000013 
H  4.5858  -3.6434999999999995  1.0196999999999994 
C  4.5385  -4.2041  -0.9544000000000001 
H  5.2683  -4.809799999999999  -0.8831000000000007 
C  3.9193  -4.059899999999999  -2.1618000000000004 
H  4.1844  -4.552699999999998  -2.9297000000000004 
C  2.8545  -3.1239999999999988  -2.1910000000000003 
C  -0.12949999999999973  -5.165899999999999  -2.1314 
C  0.5718000000000001  -5.5634999999999994  -0.9626000000000001 
H  0.3149000000000002  -5.2706  -0.09649999999999981 
C  1.6326  -6.390499999999999  -1.1601000000000004 
H  2.1266  -6.690899999999999  -0.4051 
C  2.0282999999999998  -6.8203  -2.4505000000000003 
H  2.7906000000000004  -7.380599999999999  -2.5323 
C  1.3636999999999997  -6.4642  -3.5667 
H  1.6360999999999999  -6.7692  -4.4247000000000005 
C  0.24360000000000026  -5.6168  -3.4113 
C  -0.17589999999999995  -0.8845999999999989  -7.3642 
H  0.7760000000000002  -1.0257000000000005  -7.5512 
H  -0.4727999999999999  -0.05059999999999931  -7.785 
H  -0.6936999999999998  -1.6339000000000006  -7.7242 
C  -3.9697  -2.8878999999999984  -7.5723 
H  -3.9901999999999997  -3.815899999999999  -7.8867 
H  -3.2514  -2.402000000000001  -8.0293 
H  -4.8284  -2.458400000000001  -7.7663 
C  -4.3223  1.003700000000002  -1.4897 
H  -5.095  1.4511000000000003  -1.9164000000000003 
H  -3.6475  1.6956000000000024  -1.2759 
C  -4.7783999999999995  0.33000000000000185  -0.20170000000000066 
H  -5.7506  0.15000000000000213  -0.2519999999999998 
H  -4.3123  -0.5366  -0.10240000000000027 
C  -4.878  0.4603999999999999  2.2340999999999998 
H  -4.3769  -0.37979999999999947  2.2924999999999995 
H  -5.8383  0.26910000000000167  2.2165999999999997 
H  -4.6709  1.0183999999999997  3.0125 
C  -5.184699999999999  2.5101000000000013  0.8957999999999995 
H  -4.8088999999999995  3.0218000000000025  0.14889999999999937 
H  -5.0543  3.0061  1.7302999999999997 
H  -6.1425  2.3697000000000017  0.7462 
