141
Ligand ID: unq_CSD-PACJEL-02-a  ===  Stoichiometry: C67H71N2  ===  Charge: -1  ===  Donors: N-N
Cu  0.0  0.0  0.0 
N  1.892199999999999  -0.2380999999999993  0.8812999999999995 
N  1.112099999999998  -1.8072999999999997  -0.4574999999999996 
C  2.1293000000000006  -1.4512  0.3396999999999988 
C  3.3308  -2.3469999999999995  0.7530999999999999 
C  3.520199999999999  -3.6163999999999996  -0.08120000000000083 
H  4.307500000000001  -4.1044  0.2419999999999991 
H  3.650199999999998  -3.3725999999999994  -1.020900000000001 
H  2.7257999999999996  -4.183199999999999  0.0029000000000003467 
C  4.675699999999999  -1.6175999999999995  0.7274999999999991 
H  4.671299999999999  -0.9003999999999994  1.3964999999999996 
H  4.822399999999998  -1.2332999999999998  -0.1615000000000002 
H  5.394400000000001  -2.2509999999999994  0.9331999999999994 
C  3.0718999999999994  -2.7783999999999995  2.2070999999999987 
H  2.1799  -3.1759999999999993  2.2764000000000006 
H  3.1265  -1.9967999999999995  2.793899999999999 
H  3.744699999999998  -3.4371  2.4763 
C  2.835699999999999  0.6102000000000007  1.5261999999999993 
C  2.8058000000000014  0.7844999999999995  2.9183000000000003 
C  3.7697000000000003  1.6202000000000005  3.5177999999999994 
H  3.775199999999998  1.7117000000000004  4.4641 
C  4.706900000000001  2.3118  2.774099999999999 
C  4.627600000000001  2.2112999999999996  1.383799999999999 
H  5.2163  2.7365000000000013  0.8547999999999991 
C  3.7270000000000003  1.3768000000000011  0.7453000000000003 
C  1.7505999999999986  0.10410000000000075  3.762600000000001 
H  1.4106999999999985  -0.6789999999999994  3.2422999999999984 
C  0.5615999999999985  1.0373  4.011999999999999 
H  0.867799999999999  1.8373000000000008  4.4902 
H  -0.11120000000000019  0.5724  4.551899999999998 
H  0.16769999999999996  1.3011  3.1545000000000005 
C  2.275299999999998  -0.4272999999999998  5.091399999999998 
H  3.0360000000000014  -1.0229999999999997  4.9274000000000004 
H  1.5641999999999996  -0.9230999999999998  5.5495 
H  2.5623000000000005  0.32230000000000025  5.652199999999999 
C  3.7211  1.310500000000001  -0.7783999999999995 
H  3.398299999999999  0.3974000000000011  -1.0320999999999998 
C  5.106400000000001  1.4886999999999997  -1.4052000000000007 
H  5.076499999999999  1.220600000000001  -2.3473000000000006 
H  5.755500000000001  0.9307999999999996  -0.9275000000000002 
H  5.374600000000001  2.429500000000001  -1.3422 
C  2.7430999999999983  2.296000000000001  -1.3475000000000001 
H  1.8625000000000007  2.1525  -0.942400000000001 
H  2.6805999999999983  2.1708999999999996  -2.317400000000001 
H  3.0485000000000007  3.2074  -1.153500000000001 
C  5.8673  3.173300000000001  3.3484 
C  7.227999999999998  2.51  3.0470999999999986 
C  8.4006  3.1030999999999995  3.541400000000001 
H  8.3384  3.8971  4.060599999999999 
C  9.643  2.5570000000000004  3.2893999999999988 
H  10.421299999999999  2.9906000000000006  3.617800000000001 
C  9.767499999999998  1.3842999999999996  2.562800000000001 
H  10.623999999999999  1.0117000000000012  2.3884999999999987 
C  8.6284  0.7680000000000007  2.0970999999999993 
H  8.698799999999999  -0.044800000000000395  1.6113999999999997 
C  7.378899999999998  1.3217999999999996  2.3314000000000004 
H  6.607399999999998  0.8808000000000007  1.9962 
C  5.7516  4.5388  2.6304999999999996 
C  6.739999999999998  5.0656  1.8129000000000008 
H  7.5809  4.6273  1.7589999999999986 
C  6.524799999999999  6.2217  1.0686999999999998 
H  7.219100000000001  6.5664  0.5204000000000004 
C  5.308699999999998  6.867600000000001  1.1250999999999998 
H  5.156299999999998  7.6472999999999995  0.6025999999999989 
C  4.314599999999999  6.3766  1.943699999999998 
H  3.4792999999999985  6.827200000000001  2.001800000000001 
C  4.538  5.218500000000001  2.6872999999999987 
H  3.8461999999999996  4.8858  3.2460000000000004 
C  5.7865  3.2954000000000008  4.8923000000000005 
C  5.552900000000001  4.479100000000001  5.569899999999999 
H  5.3902  5.277100000000001  5.082399999999998 
C  5.5554999999999986  4.5091  6.9626 
H  5.400400000000001  5.332000000000001  7.412100000000001 
C  5.779499999999999  3.3673  7.7005 
H  5.775500000000001  3.396700000000001  8.650699999999999 
C  6.009999999999998  2.179400000000001  7.038400000000001 
H  6.156600000000001  1.3800000000000008  7.531599999999999 
C  6.026599999999998  2.1537000000000006  5.655599999999998 
H  6.2073  1.3338999999999999  5.213199999999999 
C  1.0254000000000012  -2.9423999999999992  -1.3216999999999999 
C  1.4728999999999992  -2.829999999999999  -2.6423000000000005 
C  1.354499999999998  -3.9232999999999993  -3.5054 
H  1.6767000000000003  -3.8404999999999996  -4.3948 
C  0.784399999999998  -5.1270999999999995  -3.1103000000000005 
C  0.3117999999999981  -5.2017  -1.7964000000000002 
H  -0.0876000000000019  -6.0108999999999995  -1.5010000000000012 
C  0.4023000000000003  -4.1396  -0.9040999999999997 
C  2.0950999999999986  -1.5440999999999994  -3.176 
H  2.124600000000001  -0.8853999999999997  -2.4238999999999997 
C  3.4987999999999992  -1.7251999999999992  -3.683 
H  4.056100000000001  -2.1132  -2.9731000000000005 
H  3.8663999999999987  -0.8544999999999998  -3.9465000000000003 
H  3.4930999999999983  -2.3247  -4.4565 
C  1.2368999999999986  -0.9419999999999993  -4.2865 
H  1.6204999999999998  -0.08729999999999905  -4.570400000000001 
H  0.32539999999999836  -0.7970999999999995  -3.953900000000001 
H  1.2102000000000004  -1.5572  -5.050600000000001 
C  -0.17150000000000176  -4.3094  0.49099999999999966 
H  0.14470000000000027  -3.5417999999999994  1.0489999999999995 
C  -1.6903000000000006  -4.2608999999999995  0.4476999999999993 
H  -1.9799000000000007  -3.4025999999999996  0.07199999999999918 
H  -2.0456000000000003  -4.3568  1.3553999999999995 
H  -2.0234000000000005  -4.9915  -0.11299999999999955 
C  0.2823999999999991  -5.604099999999999  1.1709999999999994 
H  -0.12239999999999895  -6.3712  0.714599999999999 
H  0.001100000000000989  -5.595  2.1102000000000007 
H  1.258499999999998  -5.6728  1.1237999999999992 
C  0.7164000000000001  -6.3812  -4.019300000000001 
C  1.4875000000000007  -6.1105  -5.3321000000000005 
C  0.9138999999999982  -5.285699999999999  -6.2957 
H  0.06050000000000111  -4.9037  -6.128500000000001 
C  1.5549999999999997  -5.0085999999999995  -7.4893 
H  1.1445000000000007  -4.4481  -8.136800000000001 
C  2.8095  -5.5625  -7.7286 
H  3.2612999999999985  -5.3835  -8.544 
C  3.3877999999999986  -6.363899999999999  -6.785900000000001 
H  4.247199999999999  -6.7353  -6.9468000000000005 
C  2.7323999999999984  -6.638999999999999  -5.5976 
H  3.1479  -7.201  -4.955300000000001 
C  1.3522999999999996  -7.5698  -3.2573000000000008 
C  2.4647000000000006  -7.354699999999999  -2.4428 
H  2.7791999999999994  -6.4662999999999995  -2.3155 
C  3.1220999999999997  -8.3978  -1.8148999999999997 
H  3.8802999999999983  -8.2176  -1.2712000000000003 
C  2.686  -9.695  -1.9716000000000005 
H  3.1377999999999986  -10.411999999999999  -1.5440000000000005 
C  1.5874999999999986  -9.9294  -2.7566000000000006 
H  1.2774999999999999  -10.8199  -2.872300000000001 
C  0.9209999999999994  -8.882299999999999  -3.3857999999999997 
H  0.15370000000000061  -9.0701  -3.9147 
C  -0.7459999999999987  -6.7189  -4.425600000000001 
C  -0.9517999999999986  -7.5828  -5.510900000000001 
H  -0.19960000000000022  -7.9422  -5.966000000000001 
C  -2.2195  -7.9228  -5.9335 
H  -2.332700000000001  -8.512  -6.6703 
C  -3.3270999999999997  -7.4078  -5.2865 
H  -4.203000000000001  -7.6327  -5.5792 
C  -3.144300000000001  -6.56  -4.2074 
H  -3.8995999999999995  -6.2111  -3.750300000000001 
C  -1.8640000000000008  -6.214599999999999  -3.785400000000001 
H  -1.7567000000000004  -5.6244  -3.0479000000000003 
57
Ligand ID: unq_CSD-PABKUZ-02-a  ===  Stoichiometry: C30H24P2  ===  Charge: 0  ===  Donors: P-P
Cu  0.0  0.0  0.0 
P  2.1424999999999996  -0.4684999999999997  0.8020000000000003 
P  -0.7130000000000001  -0.5297999999999998  2.0967000000000002 
C  3.4045999999999994  0.8308  0.5428 
C  3.239  2.0382  1.2128000000000003 
C  4.036899999999999  3.1317  0.9139999999999999 
C  5.0015  3.0176  -0.06459999999999999 
C  5.1872  1.827  -0.7255999999999998 
C  4.390499999999999  0.7267999999999999  -0.43279999999999985 
C  2.9372999999999996  -2.0515  0.3672000000000002 
C  4.2155  -2.4024  0.788 
C  4.7455  -3.6459  0.47530000000000006 
C  4.0161  -4.541  -0.2630999999999999 
C  2.7594999999999996  -4.2069  -0.7046999999999999 
C  2.2183999999999995  -2.9683  -0.3891 
C  2.0231999999999997  -0.5689000000000002  2.635 
C  3.1384  -0.6441999999999997  3.4646999999999997 
C  2.9943999999999997  -0.8334999999999999  4.8235 
C  1.7303999999999995  -0.9524999999999997  5.3783 
C  0.6200999999999999  -0.8531000000000004  4.5823 
C  0.7395999999999998  -0.6546000000000003  3.1997 
C  -1.5537  -2.1382000000000003  2.2855999999999996 
C  -1.3710000000000004  -3.0974000000000004  1.3021 
C  -1.9425000000000008  -4.3589  1.4262 
C  -2.7173000000000007  -4.6403  2.5237999999999996 
C  -2.9163000000000006  -3.6959  3.5054 
C  -2.3395  -2.4450000000000003  3.3933 
C  -1.7785000000000002  0.6583000000000001  2.9695 
C  -1.2254000000000005  1.6745999999999999  3.7337 
C  -2.0374000000000008  2.5705  4.3967 
C  -3.400900000000001  2.4789000000000003  4.3044 
C  -3.9692999999999996  1.4927000000000001  3.5282 
C  -3.1636000000000006  0.5871  2.8473999999999995 
H  2.5702  2.1159  1.8837 
H  3.9189999999999996  3.9514  1.3785 
H  5.5405  3.7688  -0.2838999999999998 
H  5.8659  1.7555  -1.3865999999999998 
H  4.5198  -0.09149999999999991  -0.8962999999999999 
H  4.7303  -1.7849000000000004  1.2941 
H  5.616199999999999  -3.8788  0.7750999999999999 
H  4.3807  -5.3927  -0.4704999999999999 
H  2.2604999999999995  -4.8254  -1.2258 
H  1.3466999999999998  -2.7436  -0.6947999999999999 
H  4.0092  -0.5639000000000003  3.0915999999999997 
H  3.7623999999999995  -0.8821000000000003  5.3802 
H  1.6342999999999996  -1.1028000000000002  6.3111999999999995 
H  -0.2436000000000007  -0.9192  4.9733 
H  -0.8489000000000004  -2.8907  0.5359 
H  -1.7989000000000006  -5.0183  0.7582000000000002 
H  -3.1209000000000007  -5.4969  2.6071999999999997 
H  -3.4506000000000006  -3.9042000000000003  4.2617 
H  -2.4788000000000006  -1.7958999999999996  4.0710999999999995 
H  -0.28080000000000016  1.753  3.8011999999999997 
H  -1.6471  3.2591  4.9216999999999995 
H  -3.952700000000001  3.0938  4.7728 
H  -4.914000000000001  1.4310999999999998  3.4588 
H  -3.559  -0.07889999999999997  2.2985999999999995 
67
Ligand ID: unq_CSD-OZUHEX-02-a  ===  Stoichiometry: C22H32N10O2  ===  Charge: 0  ===  Donors: N-N
Cu  0.0  0.0  0.0 
O  -1.7959999999999994  -7.5136  -0.5114000000000001 
O  -2.6561  7.1103000000000005  1.37 
N  -1.3831999999999995  -1.4008999999999998  -0.34529999999999994 
N  -2.5231999999999997  -3.1919  0.7787000000000002 
N  -2.6458999999999997  -5.6083  0.46019999999999994 
N  -0.44259999999999966  -5.8305  0.31700000000000017 
N  -0.36050000000000004  -3.4037999999999995  0.2963 
N  -1.5781  1.2256  0.08549999999999991 
N  -0.7130999999999998  3.1019  1.1614 
N  -1.1034999999999995  5.442  1.669 
N  -3.2127  4.986700000000001  2.0826 
N  -2.8425999999999996  2.6203  1.5957 
C  -2.5837999999999997  -0.7663999999999997  -0.7899 
C  -3.5873999999999997  -1.4303999999999997  -1.4923 
H  -3.5054  -2.3371999999999997  -1.6721 
C  -4.7075  -0.7361999999999997  -1.9219 
H  -5.3972999999999995  -1.1876999999999998  -2.3527 
C  -4.8025  0.6354000000000002  -1.71 
H  -5.547499999999999  1.1048  -2.0136 
C  -3.7861  1.3071000000000002  -1.0431 
H  -3.8442999999999996  2.2286000000000006  -0.9182 
C  -2.6788  0.6123000000000003  -0.5607 
C  -1.4319999999999995  -2.5984999999999996  0.20350000000000001 
C  -2.1609  -4.5134  1.2726000000000002 
H  -2.405  -4.6297  2.2156 
C  -1.6562000000000001  -6.4251000000000005  0.03620000000000001 
C  -0.6327999999999996  -4.6143  1.0617 
H  -0.14569999999999972  -4.6297  1.9131 
C  -3.5220999999999996  -2.4135999999999997  1.5131999999999999 
H  -3.1212999999999997  -1.6050999999999997  1.8386 
H  -3.8476999999999997  -2.9278999999999997  2.2544999999999997 
H  -4.251799999999999  -2.1959  0.9287999999999998 
C  -4.051399999999999  -5.8035  0.17149999999999999 
H  -4.3736999999999995  -5.0728  -0.3602000000000001 
H  -4.544  -5.843299999999999  0.9941 
H  -4.1682999999999995  -6.626799999999999  -0.3098000000000001 
C  0.7693000000000003  -6.630599999999999  0.4704999999999999 
H  0.9697000000000005  -6.735899999999999  1.4032 
H  1.5024000000000006  -6.190099999999999  0.03400000000000003 
H  0.6356999999999999  -7.4937000000000005  0.07410000000000005 
C  0.9329000000000001  -3.1951  -0.3292999999999999 
H  0.9012000000000002  -2.4013999999999998  -0.8712 
H  1.1484000000000005  -3.949  -0.8792 
H  1.6042000000000005  -3.0949  0.35020000000000007 
C  -1.7164000000000001  2.2549000000000006  0.8864000000000001 
C  -1.0557999999999996  4.0844000000000005  2.1673999999999998 
H  -0.4996999999999998  4.0009999999999994  2.9705999999999997 
C  -2.3716  5.9551  1.6793 
C  -2.5351999999999997  3.7704  2.4459000000000004 
H  -2.6771999999999996  3.5579000000000005  3.3923 
C  0.6157000000000004  3.0930000000000004  0.5358 
H  0.5456000000000003  2.7552  -0.3602000000000001 
H  1.2050999999999998  2.5304000000000006  1.0446 
H  0.9647000000000006  3.9881000000000006  0.5129000000000001 
C  0.05960000000000054  6.2864  1.4489999999999998 
H  -0.11069999999999958  7.160400000000001  1.8008000000000002 
H  0.23830000000000062  6.344900000000001  0.5082999999999998 
H  0.8211000000000004  5.908200000000001  1.8946999999999998 
C  -4.6442  5.1569  2.2476 
H  -4.898  4.8871  3.1344999999999996 
H  -5.1067  4.6174  1.6048 
H  -4.8746  6.0816  2.1159 
C  -3.7291  1.5922  2.1491 
H  -4.1415999999999995  1.1048  1.4318 
H  -4.4071  2.0103000000000004  2.6853000000000002 
H  -3.2182  0.9892000000000003  2.6922 
75
Ligand ID: unq_CSD-PACKAI-02-a  ===  Stoichiometry: C29H43N2  ===  Charge: -1  ===  Donors: N-N
Cu  0.0  0.0  0.0 
N  -1.7845999999999993  0.7696000000000005  0.6647999999999996 
N  -1.2131000000000007  -1.2634999999999996  1.0656999999999996 
C  -2.1754999999999995  -0.3675999999999995  1.2356999999999996 
C  -3.4799000000000007  -0.5972999999999997  1.9441000000000006 
C  -3.1996  -0.8727999999999998  3.4414999999999996 
H  -2.667300000000001  -0.1387999999999998  3.8149999999999995 
H  -2.7041000000000004  -1.7135999999999996  3.531500000000001 
H  -4.0487  -0.9401999999999999  3.9254 
C  -4.2246  -1.7560999999999996  1.346 
H  -3.7202  -2.5824  1.4989000000000008 
H  -4.3333  -1.6134999999999997  0.38320000000000043 
H  -5.1066  -1.8291999999999997  1.7672000000000008 
C  -4.4722  0.617  1.9166000000000007 
H  -5.2725  0.3974000000000002  2.437900000000001 
H  -4.7294  0.8082000000000003  0.9893999999999998 
H  -4.0367  1.4047  2.302100000000001 
C  -2.3779000000000003  2.0673000000000004  0.6004000000000005 
C  -3.090300000000001  2.439  -0.5594000000000001 
C  -3.5686  3.7510000000000003  -0.6338999999999988 
H  -4.0405  4.0223  -1.4116 
C  -3.3820999999999994  4.6537999999999995  0.37129999999999974 
H  -3.7415000000000003  5.53  0.2983000000000011 
C  -2.6768  4.2914  1.483600000000001 
H  -2.5319000000000003  4.9288  2.173 
C  -2.1641999999999992  3.0018000000000002  1.6245000000000012 
C  -3.3254  1.5076  -1.7119999999999997 
H  -2.9979999999999993  0.6001000000000003  -1.4489999999999998 
C  -4.8185  1.3889000000000005  -2.085799999999999 
H  -5.3323  1.1189  -1.296199999999999 
H  -4.9263  0.7161  -2.7904999999999998 
H  -5.1446000000000005  2.2549  -2.4084000000000003 
C  -2.531599999999999  1.9606000000000003  -2.9472000000000005 
H  -2.8757  2.8240000000000007  -3.2592 
H  -2.6271000000000004  1.2944000000000004  -3.6599000000000004 
H  -1.5848999999999993  2.0520000000000005  -2.710699999999999 
C  -1.3630999999999993  2.7122  2.8724000000000007 
H  -1.1225000000000005  1.7416  2.8709000000000007 
C  -2.1340000000000003  3.0131000000000006  4.166600000000001 
H  -2.3130000000000006  3.9745999999999997  4.226000000000001 
H  -1.598700000000001  2.7328  4.939200000000001 
H  -2.9825999999999997  2.5228  4.1632 
C  -0.06729999999999947  3.5245000000000006  2.8709000000000007 
H  0.3920999999999992  3.4052  2.0134000000000007 
H  0.5122999999999998  3.2158000000000007  3.5976999999999997 
H  -0.2765000000000004  4.472600000000001  3.0 
C  -1.0912000000000006  -2.6391999999999998  1.4511000000000003 
C  -1.4952000000000005  -3.6613999999999995  0.5800000000000001 
C  -1.2871000000000006  -4.9878  0.9540000000000006 
H  -1.5594000000000001  -5.6853  0.36790000000000056 
C  -0.6929999999999996  -5.309699999999999  2.1608 
H  -0.5660000000000007  -6.2187  2.4055999999999997 
C  -0.28640000000000043  -4.3058  3.0015 
H  0.11880000000000024  -4.5348999999999995  3.830300000000001 
C  -0.45030000000000037  -2.9584999999999995  2.6767000000000003 
C  -2.1159999999999997  -3.3945  -0.7796000000000003 
H  -2.2600999999999996  -2.4088999999999996  -0.8649000000000004 
C  -3.4712999999999994  -4.088799999999999  -0.9612999999999996 
H  -3.3488000000000007  -5.06  -0.9175000000000004 
H  -3.8477999999999994  -3.8454999999999995  -1.8327999999999989 
H  -4.082000000000001  -3.8040999999999996  -0.25019999999999953 
C  -1.1640999999999995  -3.8275999999999994  -1.8832000000000004 
H  -0.2944999999999993  -3.3966999999999996  -1.7530000000000001 
H  -1.5319000000000003  -3.5656999999999996  -2.7531 
H  -1.0546000000000006  -4.8011  -1.8547999999999991 
C  0.10859999999999914  -1.9159999999999995  3.6104000000000003 
H  -0.1806000000000001  -1.0181999999999993  3.2802000000000007 
C  -0.3902000000000001  -2.0737999999999994  5.053099999999999 
H  -1.3706999999999994  -2.0637999999999996  5.0631 
H  -0.05109999999999992  -1.3346999999999998  5.5997 
H  -0.06869999999999976  -2.9248999999999996  5.418000000000001 
C  1.6392000000000007  -1.9604999999999997  3.5824 
H  1.9483999999999995  -2.8228999999999997  3.9288000000000007 
H  1.9976000000000003  -1.2376999999999994  4.1394 
H  1.9522999999999993  -1.8467999999999996  2.660400000000001 
84
Ligand ID: unq_CSD-OZOSIG-02-a  ===  Stoichiometry: C34H46O2P1  ===  Charge: -1  ===  Donors: P-O
Cu  0.0  0.0  0.0 
P  0.9314  2.3412999999999995  0.14650000000000052 
O  -1.6854  1.0281000000000002  -0.09669999999999934 
O  3.1763  1.2473999999999998  -1.5298999999999996 
H  2.733  1.0097000000000005  -0.8585999999999991 
C  -0.6756  3.1314  0.3993000000000002 
C  -1.8091  2.317100000000001  0.22570000000000068 
C  -3.086  2.9156000000000004  0.4215000000000009 
C  -4.3841  2.1170999999999998  0.20940000000000047 
C  -4.4624  1.6847000000000003  -1.2603 
H  -5.219  1.0748000000000006  -1.3827999999999996 
H  -3.6315  1.2295000000000007  -1.5127999999999995 
H  -4.5859  2.4753999999999996  -1.8271999999999995 
C  -4.3987  0.8862000000000005  1.1344000000000003 
H  -5.2084  0.36100000000000065  0.9654000000000007 
H  -4.3881  1.1807000000000007  2.0682 
H  -3.6077  0.3338000000000001  0.9570000000000007 
C  -5.6358  2.9370000000000003  0.5134000000000007 
H  -6.4295  2.3694999999999995  0.4203000000000001 
H  -5.6955  3.685900000000001  -0.11639999999999961 
H  -5.5867  3.2815000000000003  1.4308000000000005 
C  -3.1351  4.258300000000001  0.7859000000000007 
H  -3.9899  4.6522  0.9109000000000007 
C  -2.0175  5.0598  0.9800000000000004 
C  -2.1675  6.5429  1.3704 
C  -3.5134  6.926700000000001  1.7537000000000003 
H  -3.8452  6.316  2.441300000000001 
H  -4.1001  6.883300000000001  0.9696000000000007 
H  -3.5041  7.841400000000001  2.105900000000001 
C  -1.2092  6.7693  2.6384 
H  -0.292  6.516800000000001  2.4036 
H  -1.5185  6.215600000000001  3.384800000000001 
H  -1.2304  7.7138  2.8983999999999996 
C  -1.5968  7.415300000000001  0.2903000000000002 
H  -0.6995  7.1004  0.05550000000000033 
H  -1.545  8.340800000000002  0.6090000000000009 
H  -2.1742  7.377300000000001  -0.5021999999999993 
C  -0.7937  4.478700000000001  0.7721 
H  -0.008  4.9996  0.8815000000000008 
C  1.9631  2.855900000000001  1.5646000000000004 
C  1.399  3.1938000000000004  2.7890000000000006 
H  0.4553  3.259800000000001  2.8690000000000007 
C  2.1994  3.4378  3.898500000000001 
H  1.7998  3.6886  4.722400000000001 
C  3.5652  3.3203000000000005  3.8091 
H  4.1054  3.4606000000000003  4.5756000000000006 
C  4.1492  2.9973  2.6010999999999997 
H  5.0956  2.931300000000001  2.5336000000000007 
C  3.3594  2.7695999999999996  1.4824000000000002 
H  3.7696  2.554100000000001  0.6551 
C  1.7003  3.139500000000001  -1.3110999999999997 
C  2.7263  2.4686000000000012  -1.9718999999999998 
C  3.3674  3.028200000000001  -3.0893999999999995 
C  4.5593  2.329900000000001  -3.7820999999999994 
C  5.7061  2.1551  -2.7840999999999996 
H  5.9902  3.0345000000000004  -2.4561999999999995 
H  6.4587  1.7127000000000008  -3.2276999999999996 
H  5.4022  1.6068000000000007  -2.0284999999999993 
C  4.1426  0.9749000000000008  -4.3309 
H  4.9005  0.5672000000000006  -4.800199999999999 
H  3.3966  1.0911  -4.955299999999999 
H  3.8638  0.3935000000000004  -3.5924999999999994 
C  5.1102  3.1620999999999997  -4.955699999999999 
H  5.4141  4.0333  -4.624 
H  4.4027  3.2951000000000006  -5.622 
H  5.8614  2.6871  -5.366199999999999 
C  2.8869  4.2520999999999995  -3.5455999999999994 
H  3.3064  4.649500000000001  -4.297 
C  1.8131  4.9233  -2.9467999999999996 
C  1.3021  6.240000000000001  -3.5144999999999995 
C  1.9804  6.573800000000001  -4.8797999999999995 
H  2.3002  5.7459999999999996  -5.299099999999999 
H  2.7369  7.179100000000001  -4.733099999999999 
H  1.3286  7.005400000000001  -5.4711 
C  0.738  7.171  -2.5190999999999995 
H  0.3969  6.6634  -1.7559999999999993 
H  0.0066  7.6785000000000005  -2.9299999999999997 
H  1.4362  7.7898000000000005  -2.2171999999999996 
C  -0.3239  5.9089  -3.9069999999999996 
H  -0.738  6.7123  -4.2844 
H  -0.807  5.640100000000001  -3.0977999999999994 
H  -0.3584  5.181400000000001  -4.5653 
C  1.2464  4.359000000000001  -1.8247 
H  0.5309  4.8069  -1.3911999999999995 
49
Ligand ID: unq_CSD-OZURAE-02-a  ===  Stoichiometry: C21H19F6N2  ===  Charge: -1  ===  Donors: N-N
Cu  0.0  0.0  0.0 
C  1.0805999999999987  -2.6252  0.562 
C  1.6247999999999987  -2.7123999999999997  -0.7245 
H  2.0213  -3.5396  -0.9730000000000001 
C  1.6338999999999988  -1.6924000000000001  -1.6679000000000002 
C  1.3758  -3.8354  1.4654 
C  2.4156999999999993  -2.0178  -2.9501 
C  -0.08900000000000041  -1.5859  2.3998 
C  -1.368500000000001  -2.0702  2.6511 
C  -1.8415  -2.0091  3.963 
H  -2.6961000000000004  -2.3676999999999997  4.1693999999999996 
C  -1.0863000000000014  -1.4376000000000002  4.9648 
H  -1.4174000000000007  -1.4192  5.8555 
C  0.1578999999999997  -0.887  4.6765 
H  0.6570999999999998  -0.46640000000000004  5.3654 
C  0.6783999999999999  -0.9489  3.3792999999999997 
C  1.1751999999999985  0.4961  -2.571 
C  2.2126  1.4324  -2.4868 
C  2.299999999999999  2.3835  -3.5069 
H  3.0054  3.0196  -3.4924 
C  1.3819  2.4158  -4.5349 
H  1.4772999999999996  3.0528  -5.2346 
C  0.3270999999999997  1.5266000000000002  -4.5524000000000004 
H  -0.31460000000000043  1.5755  -5.2519 
C  0.18989999999999974  0.5563  -3.5602 
C  -2.236200000000001  -2.5789  1.5322 
H  -2.2890000000000006  -1.9026  0.8252999999999999 
H  -3.136000000000001  -2.763  1.8746 
H  -1.8505000000000003  -3.4026  1.1685999999999999 
C  1.9924  -0.311  3.0451 
H  2.594099999999999  -0.9829  2.6604 
H  2.3930999999999987  0.058099999999999985  3.8606999999999996 
H  1.8507999999999996  0.40969999999999995  2.397 
C  3.1883  1.4192999999999998  -1.3445 
H  3.7576  2.2151  -1.3918 
H  3.7436999999999987  0.6148  -1.3983 
H  2.6975999999999996  1.4202  -0.4959 
C  -0.9892000000000003  -0.3721  -3.5457 
H  -1.5585000000000004  -0.1889  -4.3214 
H  -1.5042000000000009  -0.23340000000000002  -2.7238 
H  -0.6750000000000007  -1.2997  -3.5831 
N  0.408199999999999  -1.5990000000000002  1.0393 
N  1.0599999999999987  -0.5056  -1.5367000000000002 
F  2.1098999999999997  -3.4802999999999997  2.5302 
F  0.26539999999999964  -4.4192  1.9312999999999998 
F  2.0683999999999987  -4.7892  0.8405 
F  3.3892999999999986  -1.1557  -3.1856 
F  2.9977  -3.2098  -2.9151000000000002 
F  1.6379000000000001  -2.0091  -4.0226 
77
Ligand ID: unq_CSD-PACLIO-04-a  ===  Stoichiometry: C44H20Cl8N4  ===  Charge: -2  ===  Donors: N-N-N-N
Cu  0.0  0.0  0.0 
N  -0.772  0.9283999999999999  -1.573 
N  -1.6008  -1.1441  0.11050000000000004 
N  0.7529999999999999  -0.8921999999999999  1.5975000000000001 
N  1.6311999999999998  1.1033999999999997  -0.1493 
C  -0.2781  2.0490000000000004  -2.2030000000000003 
C  -1.1809  2.4524  -3.238 
C  -2.1871  1.5816  -3.2564 
C  -1.961  0.6467  -2.2112 
C  -2.8331999999999997  -0.3650000000000002  -1.8573 
C  -2.6470000000000002  -1.2037999999999998  -0.7691000000000001 
C  -3.5929  -2.1814  -0.3436000000000001 
C  -3.1539  -2.683  0.8161999999999998 
C  -1.9217  -2.0533  1.1046 
C  -1.1438000000000001  -2.3308  2.2152999999999996 
C  0.12019999999999986  -1.8056999999999999  2.4198 
C  1.0115  -2.2049  3.4876 
C  2.1805  -1.5667  3.2851000000000004 
C  2.0228  -0.7279  2.1252999999999997 
C  2.9802  0.10670000000000002  1.6404999999999998 
C  2.7824999999999998  0.9861000000000004  0.5808999999999997 
C  3.7486  1.9423000000000004  0.13090000000000002 
C  3.1595  2.6765  -0.8182 
C  1.8498  2.1513999999999998  -1.0125 
C  0.9331  2.6509  -1.9269 
C  1.0901  5.156700000000001  -2.1007000000000002 
C  1.4556999999999998  6.3178  -2.7839 
C  2.046  6.2280999999999995  -4.0440000000000005 
C  2.2733  4.977399999999999  -4.6208 
C  1.9083  3.8184000000000005  -3.9396 
C  1.3161  3.9079999999999995  -2.6776 
C  -5.2574000000000005  0.23690000000000033  -2.1866 
C  -6.5192  -0.03420000000000023  -2.7164 
C  -6.6737  -1.0415999999999999  -3.6676 
C  -5.5657  -1.778  -4.091 
C  -4.3038  -1.5069  -3.5612000000000004 
C  -4.15  -0.4995000000000003  -2.608 
C  -1.6760000000000002  -4.6424  3.0539 
C  -2.2401  -5.4961  4.003 
C  -2.81  -4.9711  5.162800000000001 
C  -2.8158000000000003  -3.5900999999999996  5.3735 
C  -2.2518000000000002  -2.7385  4.4244 
C  -1.6819000000000002  -3.2634999999999996  3.2646 
C  4.5219000000000005  1.0884999999999998  3.3791999999999995 
C  5.796200000000001  1.2614  3.9171 
C  6.870799999999999  0.5250000000000004  3.4201 
C  6.670999999999999  -0.3864000000000001  2.381 
C  5.3955  -0.5593000000000004  1.843 
C  4.320399999999999  0.17710000000000026  2.3421 
Cl  3.2037  1.9166999999999996  4.0624 
Cl  5.166499999999999  -1.6734  0.5789 
Cl  -2.2609000000000004  -1.0672000000000001  4.7087 
Cl  -0.9680000000000001  -5.2998  1.6383999999999999 
Cl  -2.9426  -2.3756  -4.121700000000001 
Cl  -5.0929  1.4619999999999997  -1.0248000000000002 
Cl  2.2366  2.303  -4.6474 
Cl  0.379  5.3018  -0.5727 
H  -1.0796000000000001  3.2143999999999995  -3.8148999999999997 
H  -2.9297  1.5857999999999999  -3.8639 
H  -4.3971  -2.4333  -0.8039000000000001 
H  -3.5924  -3.3489  1.3521 
H  0.8087  -2.8089  4.205500000000001 
H  2.9746  -1.6542  3.8169 
H  4.648899999999999  2.0383000000000004  0.4520999999999997 
H  3.5475  3.4214  -1.2825000000000002 
H  1.2992  7.175800000000001  -2.3871 
H  2.2976  7.026400000000001  -4.5144 
H  2.6801  4.9176  -5.4881 
H  -7.2822  0.47170000000000023  -2.426 
H  -7.5419  -1.2294999999999998  -4.0337 
H  -5.6716  -2.4717  -4.7456 
H  -2.2365  -6.4437999999999995  3.8577999999999997 
H  -3.1976  -5.558  5.8154 
H  -3.207  -3.2294  6.1713000000000005 
H  5.9345  1.8889000000000005  4.631 
H  7.748900000000001  0.6467  3.7903 
H  7.4102  -0.8921999999999999  2.0394 
2
Ligand ID: unq_CSD-OZOCEO-01-a  ===  Stoichiometry: H1  ===  Charge: -1  ===  Donors: H
Cu  0.0  0.0  0.0 
H  -0.5762999999999998  0.33919999999999995  -1.2542 
89
Ligand ID: unq_CSD-OZUBAN-04-a  ===  Stoichiometry: C48H36N4  ===  Charge: -2  ===  Donors: N-N-N-N
Cu  0.0  0.0  0.0 
N  -0.16849999999999987  1.8034  -0.9093 
N  1.1128  -0.6928000000000001  -1.5513000000000001 
N  0.2469999999999999  -1.7681000000000004  0.9676999999999998 
N  -1.0132000000000003  0.7294999999999998  1.6168999999999998 
C  -0.8909000000000002  2.8865999999999996  -0.4544999999999999 
C  -0.8121  3.9238  -1.4604000000000001 
H  -1.2193  4.757299999999999  -1.413 
C  -0.05339999999999989  3.4801  -2.467 
H  0.16939999999999955  3.9544999999999995  -3.2346 
C  0.3517999999999999  2.149099999999999  -2.1495 
C  1.1315999999999997  1.3308999999999997  -2.9646 
C  1.4619999999999997  0.0037000000000002586  -2.681 
C  2.1630000000000003  -0.8779000000000003  -3.5847 
H  2.503  -0.6551000000000009  -4.4219 
C  2.2283  -2.0802000000000005  -2.9908 
H  2.6182  -2.8466000000000005  -3.3467000000000002 
C  1.5868000000000002  -1.9746000000000006  -1.7001000000000002 
C  1.4985  -2.9926000000000004  -0.7652999999999999 
C  0.8953999999999995  -2.877300000000001  0.47799999999999976 
C  0.8492999999999995  -3.9145000000000003  1.4782999999999995 
H  1.2352999999999996  -4.759600000000001  1.4099999999999997 
C  0.15779999999999994  -3.449700000000001  2.5168000000000004 
H  -0.040000000000000036  -3.9164000000000003  3.2954000000000003 
C  -0.22630000000000017  -2.093700000000001  2.2182 
C  -0.9446000000000003  -1.2601000000000013  3.0570999999999997 
C  -1.2731000000000003  0.07089999999999996  2.7901000000000002 
C  -1.976  0.9562999999999988  3.6704000000000003 
H  -2.2603  0.7565999999999988  4.5336 
C  -2.1489000000000003  2.1203000000000003  3.0363 
H  -2.5772000000000004  2.873199999999999  3.3768999999999996 
C  -1.5573000000000001  1.9972999999999992  1.7346 
C  -1.5285000000000002  2.9961  0.7631000000000001 
C  1.6712999999999996  1.9339999999999993  -4.226 
C  2.9734999999999996  2.304599999999999  -4.3327 
H  3.5517000000000003  2.1471999999999998  -3.6194 
C  3.4633000000000003  2.9116  -5.4793 
H  4.3641000000000005  3.1343999999999994  -5.5277 
C  2.6566  3.1861999999999995  -6.531499999999999 
C  1.3620999999999999  2.7714  -6.4551 
H  0.8031999999999995  2.9116  -7.1837 
C  0.8473999999999995  2.145199999999999  -5.3213 
H  -0.04190000000000005  1.8724999999999987  -5.3009 
C  3.1578999999999997  3.9006999999999987  -7.782500000000001 
H  4.0837  4.1274  -7.670400000000001 
H  2.6470000000000002  4.701599999999999  -7.92 
H  3.0600000000000005  3.3225999999999996  -8.5417 
C  2.1034999999999995  -4.323600000000001  -1.0904 
C  1.3178999999999998  -5.4472000000000005  -1.1811 
H  0.3921999999999999  -5.3684  -1.1302 
C  1.8807  -6.672600000000001  -1.3493000000000002 
H  1.3332999999999995  -7.423500000000001  -1.3900000000000001 
C  3.2462999999999997  -6.824300000000001  -1.4614 
C  4.0299  -5.685300000000001  -1.4461000000000002 
H  4.948  -5.7487  -1.5837 
C  3.4556000000000004  -4.460000000000001  -1.2295 
H  3.997299999999999  -3.7051000000000007  -1.1786 
C  3.907  -8.1937  -1.5837 
H  3.2347  -8.877500000000001  -1.5633000000000001 
H  4.5158000000000005  -8.3224  -0.8525 
H  4.389099999999999  -8.241800000000001  -2.4143 
C  -1.4632  -1.8728000000000007  4.3428 
C  -2.7962000000000002  -2.1436  4.475 
H  -3.3916000000000004  -1.8882000000000003  3.8048999999999995 
C  -3.2667  -2.7986000000000004  5.6088000000000005 
H  -4.1752  -2.9791000000000007  5.6827000000000005 
C  -2.4235  -3.1846000000000005  6.6202000000000005 
C  -1.1060000000000003  -2.8677  6.500500000000001 
H  -0.524  -3.0809000000000006  7.1935 
C  -0.6066000000000003  -2.2339  5.3642 
H  0.30379999999999985  -2.051400000000001  5.2928 
C  -2.9383000000000004  -3.9279  7.8355 
H  -3.8852  -4.0643  7.7515 
H  -2.7577000000000003  -3.4132000000000007  8.6254 
H  -2.4965  -4.7788  7.9018 
C  -2.2795  4.2637  1.0332 
C  -1.6169000000000002  5.4834  1.0953 
H  -0.6873000000000005  5.5045  1.0558999999999998 
C  -2.3237  6.6646  1.2163999999999997 
H  -1.8627000000000002  7.4731999999999985  1.2418 
C  -3.697  6.6723  1.2978999999999998 
C  -4.3289  5.469899999999999  1.2826 
H  -5.2565  5.452599999999999  1.3565 
C  -3.6528  4.277199999999999  1.1602999999999999 
H  -4.1233  3.4742999999999995  1.1653999999999995 
C  -4.471  7.970600000000001  1.3691999999999998 
H  -5.412100000000001  7.7805  1.4049 
H  -4.2808  8.4988  0.5922000000000001 
H  -4.2117  8.4546  2.1565 
55
Ligand ID: unq_CSD-PACQEQ-02-a  ===  Stoichiometry: C21H28O2P1S2  ===  Charge: -1  ===  Donors: S-S
Cu  0.0  0.0  0.0 
S  2.2372  0.2653  -1.0366 
S  0.298  2.3819  0.5355 
P  2.1517  2.02  -0.0783 
O  2.7159  3.2532  -0.9668 
O  6.1951  1.9133  4.2942 
C  1.8777  3.9015  -1.9081 
C  1.6163  5.2653  -1.774 
C  0.7482  5.8033  -2.7354 
C  0.1612  5.0749  -3.757 
C  0.5041  3.7301  -3.8638 
C  1.3538  3.1507  -2.9433 
C  2.2678  6.1582  -0.6966 
C  1.8365  5.751  0.7114 
C  3.7907  6.0738  -0.8296 
C  1.8656  7.6343  -0.8728 
C  -0.8174  5.6966  -4.7616 
C  -1.1522  7.1461  -4.4241 
C  -0.191  5.6558  -6.1594 
C  -2.1064  4.882  -4.7366 
C  3.3872  2.006  1.2398 
C  4.6236  1.4186  1.0171 
C  5.5935  1.3683  2.0024 
C  5.3159  1.9074  3.2502 
C  4.0758  2.4764  3.4922 
C  3.1157  2.5269  2.5013 
C  7.4645  1.2949  4.0911 
H  0.5128  6.7229  -2.6479 
H  0.1141  3.19  -4.5457 
H  1.5912  2.2515  -3.0002 
H  0.8545  5.7505  0.8069 
H  2.1921  4.8662  0.966 
H  2.2962  6.3055  1.3523 
H  4.1308  5.1933  -0.6364 
H  4.2099  6.7206  -0.1818 
H  4.1274  6.2672  -1.6933 
H  0.9144  7.7742  -0.7273 
H  2.3449  8.1329  -0.1818 
H  2.0949  7.9411  -1.6933 
H  -1.6163  7.1538  -3.5115 
H  -0.4051  7.72  -4.5002 
H  -1.8816  7.4651  -5.0116 
H  -0.0514  4.6857  -6.4094 
H  -0.8395  5.9897  -6.8185 
H  0.5996  6.2491  -6.2049 
H  -2.6988  5.3242  -5.3412 
H  -2.6122  5.076  -3.8411 
H  -2.0323  3.9931  -4.9662 
H  4.8165  1.0558  0.2046 
H  6.3984  0.9611  1.8296 
H  3.8792  2.7839  4.2843 
H  2.2861  2.9215  2.6592 
H  7.3558  0.37  3.9093 
H  7.9358  1.3987  4.9775 
H  7.93  1.78  3.4093 
