57

Pd  0.0  0.0  0.0 
O  0.20535739651483453  -1.9550683033559344  -1.116468029138673e-14 
N  0.2783273034730429  1.96948580286792  1.1275702593849246e-15 
N  1.9163153000121227  -0.014417499511985676  1.0037110032001806e-14 
C  2.4974773201850846  1.1239008955320806  0.03149329790264878 
H  3.4106564146608305  1.2690764265653691  0.14382720463458856 
C  1.5978440918698698  2.279066728454881  0.009818128724120651 
C  2.0499263105638805  3.5837747727252167  0.024689468844552493 
H  2.9601593028871056  3.774363016126853  0.03335613852709164 
C  1.1074529176886216  4.602500777661241  0.026815636590809922 
H  1.3809782589930208  5.491134766873818  0.03667975745644851 
C  -0.22649913284454537  4.295084999885984  0.015340600503969865 
H  -0.864890776078719  4.971116553280082  0.014018229778121744 
C  -0.6141648894417389  2.964588078584937  0.004745150048169878 
H  -1.520842647708294  2.758005996545993  0.0009853568105841586 
C  2.481942066256816  -1.2948022659080003  0.03264339578835444 
C  1.4898822843268917  -2.296739049956839  0.052156720646542726 
C  1.917717441220355  -3.633529232890483  0.13012065678487078 
H  1.2943472742449895  -4.323613179655366  0.1636156018140402 
C  3.2649617062475764  -3.9147151227522015  0.15598019455983092 
H  3.5304872577226574  -4.804304495274673  0.2078880919255557 
C  4.258006280260137  -2.920262868000605  0.10741223141869809 
C  3.8395657608560567  -1.5957509884153815  0.050313434947461516 
H  4.468033419342201  -0.9100963049529702  0.025320090173239027 
C  5.71463227798189  -3.2863708982729003  0.07374944883542149 
H  6.051229758997233  -3.1757018231697796  -0.8181579687758157 
H  5.820853203205744  -4.201900620574978  0.34444407867884663 
H  6.201037399030781  -2.7167539575794724  0.6730222073456628 
N  -1.9171334308595165  1.5334955527634975e-15  -0.08286656914048396 
C  -2.387721464909692  -0.0002526955091832527  -1.3617437518104696 
C  -1.3357886303705822  0.01461177846044658  -2.4173183910625378 
N  -0.08286656914056367  6.661338147750939e-16  -1.9171334308594363 
H  0.6704981340455122  -0.026285114344589244  -2.4956814122380417 
O  -1.6443538401378233  0.07429903008166175  -3.611065748469127 
C  -3.7119323897836862  0.06308156693339799  -1.6211707890391291 
H  -4.0309666552981644  0.1184941296060683  -2.5150931376386683 
C  -4.609372713702539  0.046452587518543406  -0.5416159353850121 
H  -5.545897315255454  0.066176513479191  -0.6954093924333629 
C  -4.127823178901956  -0.00039583311475122757  0.7281124572319055 
H  -4.72854299519128  -0.020435389033871827  1.4625259364900125 
C  -2.7854561601094128  -0.015313760563017871  0.9496224170502643 
H  -2.4562274491467604  -0.03690370322398551  1.84082563756384 
N  0.0  0.0  1.91 
C  -0.0003168143922801514  0.01681920935361597  3.0504284474816297 
C  0.0017882483490256895  0.00402149268429719  4.526049305682985 
C  1.3698128850263944  -0.5153341439184459  4.978907932820324 
C  -0.25210982668105286  1.433787347429519  5.028658804300635 
C  -1.1309067401290647  -0.9249530788333218  4.980194214880781 
H  1.3415562809508657  -0.5370975910695763  5.912346750683723 
H  2.061064691308478  0.07906871958594147  4.698188595813513 
H  1.5912185513782124  -1.411342808458723  4.624553401346467 
H  -0.23167813628049094  1.3706942385219891  6.012118908034266 
H  0.44096682929680875  2.0275357391035813  4.751976990075326 
H  -1.0783755856358042  1.819941061608659  4.667644753875194 
H  -1.154411981181432  -0.952227654876374  5.956115170258183 
H  -0.9997796087810722  -1.813061833620035  4.658747243988781 
H  -1.9588287932285786  -0.5978506975111182  4.675869641234766 
