67

Pd  0.0  0.0  0.0 
C  3.104084370380444  0.47796135277049734  -0.17487028435099344 
H  3.5735576207344715  0.7730962753971785  -0.9814076391264476 
C  3.931203802042183  0.8643134374329428  1.0491820112820867 
C  5.1518727387733  0.3812138788570036  1.3247939729300904 
H  5.493151362705159  -0.2972159191131104  0.7893782745485205 
C  5.986823035491964  0.8920791178795552  2.46296057741642 
H  6.915975112891424  0.9331317084675591  2.186138121914099 
H  5.923215118494408  0.27853854167777475  3.2097671951222746 
C  5.5327743931841855  2.274427479099749  2.9056357276680584 
H  5.7580211388275035  2.9258148094431413  2.221305763801788 
H  5.9963219408521695  2.5227577513035375  3.720844441408446 
C  4.0239402824399075  2.2939850976284766  3.149441933110156 
H  3.8071901134156465  1.705122085490106  3.889611648218332 
H  3.745131558919274  3.1914775614493878  3.3890919134428747 
C  3.27801747101469  1.8465120398227635  1.9132469234399345 
C  2.058701502902088  2.2845557143257196  1.5103788940139369 
C  1.20220328626578  3.2860531293218807  2.162847768869177 
C  1.0684912798990898  3.3599212693066742  3.5573708010377274 
H  1.4777205203876265  2.728853745666234  4.105614988727401 
C  0.31442371137339564  4.391293492766645  4.10532968523716 
H  0.22704809663849201  4.4756974050446665  5.027303644490812 
C  -0.3035848253521789  5.288088526236737  3.25654006673457 
H  -0.8080430951742841  5.993479672058642  3.594719006652746 
C  -0.15667946645038255  5.113462951332219  1.8971391751226665 
H  -0.6078972319604601  5.701291561519233  1.3331882968241182 
C  2.8170578162521682  -0.9926521644580755  -0.28853571519895976 
C  3.8010166608041303  -1.8771105499886784  -0.6789229159273913 
H  4.6367998413713725  -1.5571739600286216  -0.935152799987899 
C  3.551846409687693  -3.242748830472846  -0.6912242506035207 
H  4.211039461969884  -3.8430379768998284  -0.9564191044465917 
C  2.2947259337008155  -3.6942620767680276  -0.2987604977873377 
H  2.1151252676227648  -4.605025036770059  -0.24735260507951862 
C  1.3164339456315028  -2.764254202556872  0.013339470147076654 
H  0.466355763842887  -3.065929689618198  0.23911964056355797 
C  1.4029693701280765  2.5792074167578045  -1.4076039922110202 
H  0.5650418933860908  3.075264552225777  -1.296393596689134 
C  2.542767531194921  3.6111383944479707  -1.4963870385209932 
H  2.583318598316062  4.124870903381496  -0.6745420469196531 
H  3.389533705824638  3.1532992758220804  -1.6099766373355255 
C  2.298246606749005  4.550386776999513  -2.6821604795216283 
H  3.031561799908668  5.179437512417847  -2.7525020728421055 
H  1.4818923247602824  5.053046981013205  -2.532973028375072 
C  2.1786215483069644  3.7489751077792257  -3.9912013810332314 
H  1.9913970981147222  4.356757358825837  -4.72471080875927 
H  3.0196461941168424  3.306356657287299  -4.175992918784619 
C  1.074646368030097  2.7176636860107055  -3.8961613228341365 
H  1.0475594874515015  2.200032871914346  -4.716333323818384 
H  0.22045638166595927  3.168021499067835  -3.798811400319302 
C  1.2902215992254606  1.7745770441273354  -2.704752759159927 
H  0.546477607196274  1.1548007614243516  -2.6402390883654925 
H  2.101236749034535  1.259540755675605  -2.8399524942116106 
N  1.5532379461949803  -1.4420651450263955  -9.29602601465944e-16 
N  0.5870628103417141  4.156975091018009  1.3357933380634872 
P  1.55323794619498  1.4420651450263955  -6.206912562519165e-16 
Br  -1.654629867976521  1.654629867976521  0.0 
C  -1.3788582233137676  -1.3788582233137676  0.0 
C  -2.618821778986925  -1.1522995256591737  0.5874691967409313 
H  -2.8106553971707884  -0.30966242518610043  0.9782000501948407 
C  -3.5854032518711887  -2.161278806785389  0.6049610958635797 
H  -4.421117162155692  -2.007227978208148  1.0287619599160838 
C  -3.3399450833386255  -3.3715361338635086  0.016423527177974573 
H  -3.9908757182151104  -4.061238805801311  0.045080339651694 
C  -2.164680252095028  -3.57422256025893  -0.6007549227026177 
H  -2.0132444416912625  -4.3986257169530365  -1.0474288760065327 
C  -1.1561711193052586  -2.601214672555715  -0.5998012209931929 
H  -0.3196784027493984  -2.7832859823079534  -1.0129111498427692 
