40

Pd  0.0  0.0  0.0 
C  1.2815350221757318  -3.137129892640634  0.09109752705699639 
H  0.7369727418496156  -3.4111404170198707  -0.675660899942961 
H  0.8025670047923702  -3.339073366948454  0.9209832128645994 
H  2.131171175260527  -3.6249526198302027  0.07825057377527955 
C  2.6284079110675735  -1.011466704541418  1.4255257086869089 
H  2.0645430357686414  -0.9930840935509662  2.239742965945261 
H  3.3061302904078937  -1.7238550253600784  1.5390552506681574 
C  2.8525964760654783  -1.1338350853533186  -1.3139341498804407 
H  3.532963512798137  -1.8511446163393162  -1.26726990142107 
H  2.4145512621241902  -1.1821304106358292  -2.200992965348162 
C  4.223957972342664  0.2644340781664456  0.11751181936821779 
H  4.764711768816234  1.0939278941720525  0.11809560689314608 
H  4.843431802724737  -0.5022746225334966  0.2069969675369364 
C  2.6463036609794646  1.313592785131227  -1.3100298933103243 
H  2.130290492569391  1.2478098566915028  -2.15185639939891 
H  3.1973078547534985  2.135844989911634  -1.3479695846268147 
C  2.424977974215997  1.4144760091526614  1.1811759784493439 
H  2.9648191093043854  2.2448840937997874  1.1819052377829595 
H  1.8406909016308017  1.4349590865545119  1.9809647257757876 
C  1.066668781999776  2.9183828954219435  -0.2841337382224711 
H  1.8313354097810692  3.531400384226206  -0.3126682222324564 
H  0.4591030707431718  3.1889260575500527  0.43606839585586726 
H  0.592255635833224  2.9476429805244933  -1.141482928555183 
N  3.4978054799926723  0.15693652875143868  -1.162115503223682 
N  3.3049259332537284  0.28401408197967765  1.2741177914169266 
P  1.5985336022430057  -1.3916861436760801  1.5346916164684159e-15 
N  1.598533602243006  1.3916861436760801  -1.149212468958057e-16 
Br  -1.654629867976521  1.654629867976521  0.0 
C  -1.352040782177733  -1.3199206589279684  -0.4819701001757076 
C  -1.6380700204479186  -1.599217458033982  -1.8139382277462257 
H  -1.1579680913617836  -1.159339363685303  -2.503515938957912 
C  -2.63068216563725  -2.52632649780156  -2.142289956238523 
H  -2.8368222554424674  -2.694399528648736  -3.0538898079700485 
C  -3.3101544432602585  -3.1961573187854975  -1.1619874135498987 
H  -3.9960123560788676  -3.811990145619169  -1.3868663427944008 
C  -2.9974710358883443  -2.9701089012107795  0.12423560353005347 
H  -3.438659168087169  -3.468581175155742  0.8017084178296768 
C  -2.0389854250767776  -2.015940632791841  0.4912562833419403 
H  -1.8619130127668426  -1.8492165108145995  1.4101568590026907 
