35

Fe  0.0  0.0  0.0 
N  1.24346  -1.39668  0.0 
C  2.63754  -1.06683  -0.27579 
C  3.61363  -2.14876  -0.73035 
H  4.6647  -1.93431  -0.86204 
C  3.18899  -3.36951  -1.02668 
H  3.85269  -4.14713  -1.4028 
C  1.80324  -3.70348  -0.82212 
H  1.45257  -4.7064  -1.07257 
C  0.94183  -2.81636  -0.32648 
H  0.00262  -3.32479  -0.25323 
N  3.13962  0.01531  0.53802 
H  4.18487  -0.00838  0.4733 
C  2.65208  1.0813  -0.28709 
C  3.22624  3.49145  -0.61892 
H  3.91062  4.31919  -0.82026 
C  0.94764  2.84177  -0.17906 
H  -0.0064  3.33187  -0.16331 
C  1.82795  3.78092  -0.49375 
H  1.48314  4.80443  -0.65757 
C  3.64151  2.23883  -0.48839 
H  4.70303  2.04815  -0.60703 
N  1.24346  1.39668  0.0 
S  -1.49931  1.5963  0.0 
S  -1.49931  -1.5963  0.0 
C  -3.02412  0.69201  -0.03758 
C  -4.23755  1.39204  -0.0626 
C  -5.44874  0.69348  -0.07371 
C  -5.44585  -0.70404  -0.06111 
C  -4.23264  -1.39691  -0.04202 
C  -3.02268  -0.69278  -0.03081 
H  -4.24328  2.47507  -0.0688 
H  -6.38608  1.23358  -0.08836 
H  -6.37992  -1.24984  -0.06458 
H  -4.23268  -2.47969  -0.03234 
