92

Fe  0.0  0.0  0.0 
N  3.358468498082523e-06  -7.770949998459216  0.00015671768270406733 
N  1.435250857196841  1.4590500428864903  0.002513442592161704 
N  1.4406188134266507  -1.4590500427272741  -0.0025040654403303796 
C  3.358468498082523e-06  7.734249999305771  -0.00010654777367230571 
C  0.3176919907905788  5.67286983143818  1.1679380217593214 
C  3.358468498082523e-06  3.4663499999209715  -3.4082365856300574e-05 
C  3.358468498082523e-06  -4.951449998865637  0.0001088449074897403 
C  0.3099099450065758  7.067170310067836  1.1961154073109768 
C  3.358468498082523e-06  -3.4547499990813795  8.343218088456801e-05 
C  2.5236979594694904  3.479950785878786  0.04625532786773092 
C  3.358468498082523e-06  4.980549999702704  -5.9792227969985255e-05 
C  3.4619399821406787  2.5188503483639297  0.02049574901576041 
C  1.2429170745815847  2.8204504357190454  0.025638028215935908 
C  2.782248641943298  1.2502498517987632  -0.008739027797245322 
C  3.3957101601320883  -0.004850590289682129  -0.03476547532462277 
C  1.2510414594388286  -2.8184498477536093  0.008990583285823335 
C  2.7870207509066027  -1.2501504980882385  -0.029324635900971664 
C  0.6469360271018917  7.852291843282828  2.4643222390500354 
C  2.533279307810974  -3.4740500353540047  -0.002052705187182377 
C  -0.42233099322411494  -5.674768743276746  -1.1038499900876888 
C  3.4730077336850744  -2.5168504765668187  -0.028046363294552002 
C  -0.40232729331064776  -7.065167817595882  -1.0493195754343734 
C  -0.46618538020404726  8.859796831592378  2.7581036052539183 
C  0.7807195714696782  6.9569127068389145  3.693103316084242 
C  1.9584400186592008  8.59868821776099  2.250788301946113 
H  4.403213453333453  2.652249999666572  -4.215401833574291e-05 
H  2.680813468648759  4.417751441879703  0.08488299126571083 
H  4.4135031763622985  -2.6502505561368186  -0.03273156063169095 
H  2.6792959526111413  -4.411950225680503  -0.013254152719562309 
H  4.344856181104878  -0.008650155194459408  -0.009140210876071593 
H  0.5291992088847922  5.185583215023759  1.9561776301002323 
H  -0.7166399650628592  -5.224182032214977  -1.8865149662491125 
H  -0.6989917125878214  -7.5620806177831446  -1.803191183432044 
H  3.358468498082523e-06  8.683749999168901  -0.00012266949740559295 
H  -0.21164915221670955  9.370309727035977  3.517585285235582 
H  -0.5881520962365058  9.437984209985656  2.0147404936812707 
H  -1.2785796218099361  8.40339993704456  2.9410052204810633 
H  -0.04434853127661931  6.523815817472472  3.876309894164112 
H  1.4512671750704476  6.303309998304352  3.5335878600884456 
H  1.0302998361286368  7.490725348102356  4.437614683035826 
H  2.6599123497676307  7.991484882878997  2.0543832897964966 
H  1.8577390999469503  9.211676009830272  1.5317886275758557 
H  2.1656591966812986  9.07640170874437  3.0453449851300864 
C  -0.30991666194357587  7.067129687053495  -1.196404942793999 
C  -0.3176987077275786  5.672830166085118  -1.1681802091235391 
H  -0.5292059258217922  5.185516782640023  -1.9564032695635034 
C  -0.6469427440388901  7.852208153612165  -2.464638435228799 
C  0.4661920971410453  8.859703166694688  -2.7583549209172427 
H  0.21164243527970955  9.37019026942139  -3.517953030180278 
H  0.5881453792995058  9.437915786452193  -2.015110537605845 
H  1.2785729048729375  8.403300059691558  -2.94134013110311 
C  -0.780712854532682  6.956787291996741  -3.693290012415094 
H  0.04434181433961926  6.523684179805518  -3.876580976683097 
H  -1.4512738920074475  6.303189999037208  -3.5338514547926163 
H  -1.0303065530656355  7.490574648896886  -4.43791859987746 
C  -1.9584467355961994  8.598611778918823  -2.251129844632711 
H  -2.6599056328306347  7.99141511565839  -2.0546051194298744 
H  -1.8577458168839485  9.211623986672818  -1.532150986727221 
H  -2.165665913618299  9.076298287797723  -3.0457027497175315 
C  -1.242923791518583  2.820449562626577  -0.025783352800213457 
N  -1.4352441402598428  1.4590499575341402  -0.00251344274030459 
C  0.40233401024764415  -7.065132179526027  1.0496090430007083 
C  0.42232427628711694  -5.67473125592853  1.103993148425916 
H  0.7166466819998554  -5.224117965437677  1.8867419165044546 
H  0.699084089197682  -7.562019381106135  1.8033849974785856 
C  -1.2510481763758285  -2.8184501522751164  -0.008944420165079516 
N  -1.4406255303636488  -1.4590499576933562  0.0025040655884732655 
C  -2.7870274678436022  -1.250149502392616  0.029317542151086826 
C  -3.3957168770690873  -0.004849410550184221  0.03471609324916645 
C  -2.7822553588802976  1.250250146999536  0.008647024604447927 
C  -3.461946699077677  2.518849650068644  -0.020630831763540587 
C  -2.5237046764064908  3.4799492122767095  -0.04642304797976588 
H  -2.680820185585757  4.41774855600543  -0.08508255751258981 
H  -4.403220170270452  2.652249998727543  -9.745877251135366e-05 
H  -4.34484946416788  -0.008649843961785116  0.009190051389167984 
C  -3.4730144506220726  -2.516849523548857  0.028082284578798224 
C  -2.5332860247479743  -3.4740499644857157  0.0021211313981411087 
H  -2.67930266954814  -4.4119497738888285  0.013354428461199023 
H  -4.413509893299298  -2.6502494439403983  0.03277201195900236 
Cl  -0.5782807097371063  1.9147401721733013  2.152375915180123 
Cl  2.083956037963752  0.19366054724827608  2.269894568419003 
Si  0.0  0.0  2.32 
C  -0.3478403990070904  -0.44177034012742944  4.238889257722364 
H  -1.16784875664427  -0.6501962644899056  4.284980335588069 
H  0.06361252196028688  -1.2256056454541093  4.282360489023581 
H  -0.053598694535569195  0.20917153064986777  4.628532954217823 
F  0.0  0.0  -1.7999999999999998 
F  -1.1630522838928354  0.5613747104523586  -3.6878138863235934 
F  0.1002608271284634  -1.3057968698219375  -3.6266913590715713 
F  1.0598384744465028  0.7894175666946711  -3.631043804357715 
B  0.0029529823178690018  -0.0449954073250921  -3.233511685761605 
