29

Fe  0.0  0.0  0.0 
N  1.2396866085829905  1.4000275399076982  -4.0116743504198637e-16 
H  1.280319852728534  1.4202980911583336  -0.9081813994033454 
H  0.923653821179254  2.20958127916823  0.2718399906840764 
N  1.2396866085829914  -1.4000275399076978  7.216449660063518e-16 
H  1.8553241567835028  -1.4300280818990134  0.6684394039297135 
H  0.8288955067608205  -2.2123651494057075  -0.016389596053259098 
C  2.578636193331897  1.2663381911879301  0.49495367211452473 
C  2.986907762012937  2.015925320787672  1.569757189667926 
H  2.366263562953336  2.598788858639077  1.992554758744458 
C  4.274513484826862  1.9396979095704352  2.0503779074444592 
H  4.5332691146828346  2.4521110511342776  2.8065254766203207 
C  5.196103173749176  1.1070612815246368  1.4206872366316894 
H  6.0897468142345  1.061928487205344  1.7367481400934965 
C  4.815012027112926  0.3609794079717319  0.35618312864933493 
H  5.456462397529396  -0.1990888104375259  -0.06519435416210045 
C  3.501892142649108  0.38916050718253814  -0.1427512304331529 
C  3.1042421491145955  -0.42457459625343374  -1.287142603206508 
C  3.8792500905596112  -0.4132527011133955  -2.4732143866107257 
H  4.654348142541938  0.13357200638519617  -2.5263778993080095 
C  3.5134636613843098  -1.194713664425683  -3.5602417188569175 
H  4.0395749319947445  -1.191327216756008  -4.351120719026292 
C  2.3776446910250773  -1.9777488824845184  -3.4788508480439706 
H  2.1137187149399455  -2.4964611215650994  -4.2295726554903395 
C  1.6228518545791597  -2.018185644181173  -2.3224225137519388 
H  0.8541443129022248  -2.575349983999393  -2.286220527564141 
C  1.9643983286770306  -1.270455774475169  -1.2351545532284987 
Cl  -1.5202795795510768  1.5202795795510768  0.0 
Cl  -1.5202795795510768  -1.5202795795510768  0.0 
