79

Pd  0.0  0.0  0.0 
Cl  6.3026840798688495  -0.11795928421789831  0.06463616103693962 
N  0.31460057532178337  2.049525728246484  -5.8633653488016096e-15 
N  1.8532975906083848  -0.023540769757886965  6.68909372336657e-15 
N  0.23210183406983176  -2.0259849584885967  -8.396061623727748e-16 
C  -0.5376518080719532  3.0731016306325603  0.045915107037067505 
H  -1.4480492098217492  2.8913889479184656  0.07677287474743096 
C  -0.126179518534139  4.390853124091511  0.048937759714758944 
H  -0.7528195224623688  5.077409844614738  0.08720987725770814 
C  1.197258159795236  4.6784072117857995  -0.0058287284733919914 
H  1.485457814640077  5.562986983096406  -0.023308921132145343 
C  2.114230389519572  3.644107709533197  -0.03464746464276013 
H  3.0246816686353446  3.8253342384945066  -0.057439207820673875 
C  1.6584205423753688  2.3230299611949707  -0.02724097478722734 
C  2.536036886507821  1.152255476607482  -0.02327124551566854 
C  3.9202157597465863  1.1508858875820103  0.004720022861447682 
H  4.402120564683245  1.9469316471352718  0.0015235128530914845 
C  4.563038739108235  -0.07075603887646875  0.038064898381239505 
C  3.877210025235346  -1.2735133056763144  0.0506021384135404 
H  4.313853081238084  -2.095250290294439  0.030838288705013227 
C  2.4833488097088043  -1.217116394116505  0.04441261360257658 
C  1.5633895186093802  -2.350827188083955  0.08714583676137434 
C  1.9669550674981708  -3.6677220909152695  0.2440525690802687 
H  2.870348016062568  -3.8777626838398884  0.30254427625315256 
C  1.0170645269162353  -4.6619489001500485  0.31440079373301194 
H  1.2746684593983078  -5.548037961804387  0.43431680094765723 
C  -0.2961674093626818  -4.342456418888028  0.2064251670658668 
H  -0.9473621670080761  -5.005108606495929  0.2550605027141139 
C  -0.6600622652985939  -2.9971255170679227  0.01917720731385605 
H  -1.5590373194291003  -2.7851607065732873  -0.0953287801410655 
N  -2.015061128701124  -1.2524703496552547e-15  0.015061128701124193 
C  -2.8127891246352275  0.12902925851110247  1.1168216221619724 
H  -2.521408956389075  0.08683870120216344  1.9986354825808297 
C  -4.088380886760188  0.3265642441705942  0.7270021692874717 
H  -4.819697393185667  0.4431479702843927  1.2871366729872764 
N  -4.113132239249229  0.3241953520364482  -0.6227035056283787 
C  -2.829475557673326  0.11802664023733611  -1.037325943661602 
C  -2.4626414419828686  0.006864644906961923  -2.4371631636124835 
C  -1.0455801563652711  -0.08965940701807745  -2.8127422900343286 
N  -0.6442724782507225  -0.2484026794459456  -4.108647726763887 
C  0.7077017190140764  -0.24062699612094995  -4.1105657150451425 
H  1.2583423818843291  -0.32885291990918775  -4.8554235919354385 
C  1.1100726458788954  -0.08144009143642572  -2.827117930134924 
H  1.9940665253503025  -0.034088120235329124  -2.5432374061807987 
N  0.015061128701124193  0.0  -2.0150611287011246 
C  -5.321723417289336  0.5765404652322367  -1.4304988808378334 
H  -6.053259719762696  0.7999676661154466  -0.8496539066243394 
H  -5.541923606265923  -0.21047521893713478  -1.931335340818611 
H  -5.156148992318208  1.3040419796813187  -2.032858305326059 
O  -3.32248591474731  -0.0005205034310981388  -3.3077969570299617 
C  -1.4647290426232165  -0.49581415526315853  -5.313575993347458 
H  -0.8956087905056801  -0.5303916157054751  -6.085638780858332 
H  -2.102093494089478  0.21424931741695044  -5.417588063669177 
H  -1.9291283284018383  -1.3302856005311248  -5.21800570298109 
N  1.3505023769646426e-16  -8.741869951004195e-17  1.9099999999999997 
C  0.5803673673656793  -0.009360089206032818  3.229199942247986 
C  0.26915865508254816  -1.2940953321248307  3.976258991454576 
C  1.1084244049190601  -1.6788250024910947  5.020450488207554 
C  0.8196183431287564  -2.7923812735379396  5.794542310852273 
C  -0.310173871174931  -3.5529341226384403  5.515366548609418 
C  -1.1197816647043088  -3.209972368752318  4.445469667584032 
C  -0.8388360339376317  -2.0775246525439566  3.675413551052528 
C  0.19211727026262185  1.2476009284645124  4.01583719165593 
C  0.6046183976177879  2.4931819086748286  3.5338773886961548 
C  0.3192823000513173  3.6571040945871554  4.2393011879591285 
C  -0.3766168322868956  3.591296990247947  5.443859705686437 
C  -0.7958618782590635  2.360808383611137  5.9238701955351445 
C  -0.5186852385597283  1.1951570760595063  5.212234038775136 
H  1.5721497729567704  0.04382245286391706  3.1191924553258534 
H  1.9019420650062955  -1.14380836245493  5.214704800937258 
H  1.4523855373216699  -3.0494120023552345  6.5413570485194406 
H  -0.5265843759200195  -4.329028763835629  6.065121522521418 
H  -1.9200344775659002  -3.721778605405846  4.219102197240642 
H  -1.4193463264504644  -1.83854959202865  2.929312304077045 
H  1.0889035029103582  2.5347803002226748  2.67450756108269 
H  0.5750472467473066  4.482805938711312  3.9026814371250977 
H  -0.583779170363417  4.393715710270238  5.949750230840307 
H  -1.2615030494788555  2.314933829708635  6.745841919482695 
H  -0.8128119446689501  0.3824625539530335  5.5441341509948705 
