65

Pd  0.0  0.0  0.0 
O  -0.73473  2.87578  -0.14696 
N  0.27837  -2.00449  0.0 
N  2.51209  -1.19033  0.32526 
H  3.40583  -1.25755  -0.20331 
N  1.86  0.01345  0.0 
N  0.26163  1.99104  0.0 
C  1.67542  -2.25933  -0.23313 
C  2.10552  -3.69125  -0.05508 
H  3.15779  -3.95082  -0.06109 
C  1.17209  -4.65667  0.00141 
H  1.48012  -5.69536  0.05056 
C  -0.27929  -4.32373  -0.03035 
H  -1.0076  -5.12786  -0.03005 
C  -0.6947  -3.03893  -0.0193 
H  -1.75169  -2.80454  -0.00541 
C  2.48678  1.29788  0.02904 
C  1.63346  2.34748  0.00958 
C  3.99677  1.45756  0.03024 
H  4.53363  0.4957  0.11059 
H  4.31949  2.07949  0.88286 
H  4.30622  1.92508  -0.92794 
C  2.05377  3.79222  -0.00033 
H  1.68657  4.27093  -0.93163 
H  3.1533  3.92044  0.0436 
H  1.60968  4.30136  0.87844 
N  -1.89296  0.0  -0.10704 
N  -0.10704  0.0  -1.89296 
C  -2.93336  -0.13712  0.73622 
C  -4.11288  -0.12567  -0.00998 
C  -3.75443  0.03964  -1.34021 
C  -2.38386  0.15871  -1.33543 
C  -1.40447  0.45146  -2.41065 
C  -1.82052  0.09269  -3.86165 
C  1.1066  0.19053  -2.7029 
H  -2.85989  -0.24642  1.80866 
H  -5.12229  -0.22437  0.36488 
H  -4.41364  0.0853  -2.19864 
H  -0.99589  0.15644  -4.59505 
H  -2.30694  -0.89979  -3.97994 
H  -2.53373  0.87941  -4.18374 
H  0.91398  0.16855  -3.78721 
H  1.59557  1.15264  -2.47487 
H  1.8013  -0.65522  -2.5199 
N  0.0  0.0  1.91 
C  -0.46832  1.12791  4.21454 
C  -0.83313  0.88809  7.26007 
C  0.00145  0.05198  6.47345 
C  -0.03435  0.05738  4.91683 
C  -0.49945  1.15816  2.67671 
C  0.88129  -0.80278  7.21347 
C  0.40938  -1.12735  2.73315 
C  0.40008  -1.11292  4.10303 
C  0.90178  -0.78814  8.63413 
C  -0.8069  0.87547  8.67831 
C  0.06823  0.03005  9.34625 
H  -1.54707  1.56082  6.8 
H  0.09171  0.02043  10.44591 
H  -0.78348  2.02406  4.73256 
H  0.69842  -2.02129  4.62213 
H  -1.46443  1.51217  9.23283 
H  -0.8223  2.07837  2.1649 
H  0.72726  -2.05697  2.29193 
H  1.56154  -1.46242  6.69491 
H  1.59931  -1.44169  9.16497 
