86

Ni  0.0  0.0  0.0 
P  1.3331800234777087  -1.5174752139656187  1.5912349818052371e-15 
N  1.3331800234776998  1.5174752139656187  -5.514907634557596e-15 
C  2.502202816562251  1.0245508003633383  0.11719151728550002 
C  3.866586848863887  1.6115186808286213  -0.1333748605516709 
C  4.6882238403238805  1.5322451982090108  1.1745121602639605 
C  5.037064251347916  0.009811020215021834  1.3334253167751722 
C  4.253448320738309  -0.6154496438589971  0.18381086172661307 
C  2.7520218308883297  -0.4193351029023215  0.49698287899856114 
C  4.487068237990854  0.4365903073096321  -0.94034193723269 
C  1.0644933528364802  2.941940038897497  -0.24266465657680444 
C  0.6358008424403752  3.302832585912371  -1.5357632572408995 
C  0.255535471430669  4.658603013703103  -1.7212313804831216 
C  0.29849323949279216  5.558753538356715  -0.709092598927458 
C  0.7518635159632008  5.183536141222417  0.5598992281939537 
C  1.1660524693095857  3.843352132756579  0.7875113200921406 
C  0.6687716157816256  2.36146915417175  -2.695247119779235 
C  2.045819219533512  2.4085099027408514  -3.3559835308958816 
C  -0.4213363820797451  2.608898104934501  -3.7112060890900564 
C  1.6848269219779755  3.5398679435180025  2.194265735098851 
C  0.652449838306325  3.833257859150648  3.2786171193441462 
C  2.982595210667704  4.331983596503708  2.4491573417994097 
C  1.1811253485970552  -2.8691556737997823  1.319289793923042 
C  1.5810992960922907  -2.2985002904166114  2.6797738345280497 
C  2.0888580183190113  -4.0885354092779025  1.056700378628411 
C  -0.2836977481875036  -3.2505781475727966  1.374472958270641 
C  1.5785687571263904  -2.2350395075888545  -1.70936741922716 
C  2.951191770989546  -2.9082420782788456  -1.9599905239674307 
C  0.46441580575573194  -3.2338855190758955  -2.013926487863255 
C  1.4557008638042128  -1.0966911780067599  -2.728890180781919 
H  3.883409415051394  2.4635138522168316  -0.5670085760282774 
H  4.147829744085486  1.7984444555559291  1.9169249269501625 
H  5.493424564657689  2.0306267421313065  1.0935782353008092 
H  4.706071920838669  -0.3199559838154859  2.1558664272486294 
H  5.973118403060365  -0.12012306911005574  1.1827536290130396 
H  4.512105385091479  -1.4976428867400844  -0.05879586793097262 
H  2.6970605691178524  -0.4451886091994493  1.4455605225875072 
H  5.424685234989514  0.6090371997475929  -1.0106629598909567 
H  3.954334416745029  0.2601028348716985  -1.6676223424226748 
H  -0.025888724679591357  4.93267483126718  -2.587394500605901 
H  0.014626794358663098  6.452812164496975  -0.8614483482482586 
H  0.7756810545149824  5.823371013689732  1.2670127274513776 
H  0.5500261462415966  1.5141956381582438  -2.3695252560276203 
H  2.066222765712218  1.832692675574068  -4.092858192016271 
H  2.7005491469104648  2.1402098993846046  -2.711596620417391 
H  2.2507853028226705  3.3038035869451576  -3.63599457304421 
H  -0.3750371022147754  1.9347371396779174  -4.387311184181282 
H  -0.3128489410685473  3.4623663613388143  -4.129027127877031 
H  -1.2693812706250633  2.571205311356329  -3.2911498662764287 
H  1.8970767566554079  2.6152221258553814  2.23974110819713 
H  1.0064865877822173  3.5745938747984862  4.120054023229168 
H  -0.13927435793981058  3.3730358841406325  3.095508679352102 
H  0.48908372045087645  4.778092296513975  3.2920211302800735 
H  3.2184501724519903  4.2965575615311105  3.3633118708851035 
H  2.856896706109446  5.24616137827763  2.1908080447949025 
H  3.6921511710165658  3.965498032270564  1.9232568851138059 
H  1.403548337793988  -2.9420242511461088  3.3454341827345377 
H  1.071703519340195  -1.5124833070597923  2.8435595314059525 
H  2.5040229945421277  -2.0852790120575104  2.667201114273473 
H  2.086076457010362  -4.649805851893048  1.8355135289817506 
H  2.9799013392331077  -3.7962337222929508  0.89911607090667 
H  1.7657853454288783  -4.5711845875046775  0.3202399528154125 
H  -0.42273370289113066  -3.871633952192582  2.0732389926825445 
H  -0.5377131640589341  -3.6325464325672288  0.5446674040845488 
H  -0.808087905667128  -2.4690474615454794  1.5365117484913051 
H  2.8928939894322268  -3.463234909297888  -2.7377184045162624 
H  3.187952141919746  -3.4463551113517523  -1.2145242937503329 
H  3.613940584150607  -2.245099592827483  -2.102071608714857 
H  0.43013511872610055  -3.3911986552662117  -2.961486460465921 
H  -0.37378702481071446  -2.8786010010566008  -1.7387312551897265 
H  0.6258774550565741  -4.0542125653061225  -1.5740383054484068 
H  1.7629840583787502  -1.407228830064041  -3.5802733759336967 
H  1.9678730107085631  -0.3601794381680062  -2.4552034455989795 
H  0.5376835905743315  -0.8477390227931328  -2.810458866354742 
Br  -1.5839191898578664  1.5839191898578664  0.0 
C  -1.2937473829822488  -1.2398794889499034  -0.4598005675376139 
C  -1.601562203225019  -1.4938654694550033  -1.7919791134336869 
H  -1.1309417375171225  -1.0428217585005106  -2.480879663633267 
C  -2.60218398542082  -2.411889969420291  -2.121542410022959 
H  -2.8231586547736818  -2.5626138747145775  -3.03270050271447 
C  -3.2683208079706407  -3.09759503004543  -1.143064365570095 
H  -3.9596020908062854  -3.707191723557817  -1.3683280760515548 
C  -2.9347449854640226  -2.896087320001541  0.14198826503765638 
H  -3.3668350933519986  -3.405606940434718  0.8171022443470677 
C  -1.9675509241539992  -1.9516175659140573  0.5112421903797603 
H  -1.7755298364628027  -1.8022912010877177  1.4301324877763764 
