56

Co  0.0  0.0  0.0 
O  -0.10016362107337229  -3.371912563236921  0.43387074986343904 
N  1.0948866961928068  1.453830499920813  -9.44832968261126e-16 
N  1.094886696192807  -1.4538304999208134  -3.3306690738754696e-16 
N  2.983732556692588  -0.023468198322884826  -0.472997316525589 
C  0.650804025704095  2.7373520281193464  0.09117432984408899 
C  1.4784809429813484  3.7941954153530633  -0.12533709125604925 
H  1.1522459002382959  4.66224028376705  -0.04938320191134006 
C  2.804912687061974  3.582969722250101  -0.45967368044191814 
H  3.3763544204617117  4.302118268147955  -0.6061794969205979 
C  3.2604681268807676  2.2938711340019653  -0.5699501558487817 
H  4.146058925982482  2.1309152976696684  -0.8014381079146686 
C  2.3959386903821414  1.2269269922437018  -0.33689284144932186 
C  2.398613148531908  -1.1623150446988424  -0.33381937756527597 
C  3.1315291375149403  -2.4457496267231105  -0.4858134128338138 
C  4.461123195247157  -2.70648228436143  -0.8035427676062131 
H  5.063449704643907  -2.0221522953742737  -0.9881391171118 
C  4.841456048083678  -4.035767672242111  -0.8311702651428928 
H  5.7219432120997675  -4.2519142553665645  -1.0356719732203015 
C  3.944317573032258  -5.053775724130286  -0.5604373656399475 
H  4.2399920845123305  -5.934625214541825  -0.5778183467042568 
C  2.625033074328908  -4.794350344059816  -0.26895689690088903 
H  2.0185698753187222  -5.4802685821586286  -0.10486774768694279 
C  2.236922090329139  -3.462411249299131  -0.2283992595582263 
C  0.9321043044438955  -2.8258928483917316  0.10096244274467578 
C  -0.7938141442796327  2.950832619575438  0.4034552130637663 
H  -1.2232750096822007  2.101249597299266  0.5230773821954273 
H  -1.2118046587464957  3.4215783702233145  -0.32221646756233646 
H  -0.8745609517073243  3.4669431221690132  1.2086061940622645 
O  -1.2303657992645929  1.2303657992645927  2.1954679276250567e-16 
C  -1.0725832085676081  3.3485248428403134  -1.4641874539113322 
F  0.18065587990400567  3.069272736039156  -1.6562016147796212 
F  -1.5906576890633386  3.95840721066528  -2.5121151947767455 
F  -1.1680151256198823  4.188065895805353  -0.42328092612217455 
S  -1.9863153881320186  1.806629996369663  -1.1089632339379065 
O  -1.9963637860354297  1.1045774988976427  -2.3386276761711815 
N  -3.413794536693315  2.3145030016680117  -0.7285220414890057 
S  -4.152747869079252  1.9688459736191075  0.6104637991815054 
O  -3.6374518219391225  0.7676479604935724  1.2560025641406896 
O  -5.532317986065382  2.120617238543881  0.4191134778804714 
C  -3.722173214921857  3.317796961640674  1.7764532798857164 
F  -2.4164145674915942  3.323963891304887  2.013161441214405 
F  -4.045427558933751  4.499209239871678  1.2426101681736048 
F  -4.37799367082095  3.143538095700279  2.9140934107115735 
Br  -6.1862245852274445  -5.947177176176922  -0.059847553877218296 
S  -1.5132085117392116  -1.5132085117392118  -3.0213372667915686e-18 
C  -2.703535232315115  -2.819877814193002  0.023431865225380877 
C  -3.965005549731515  -2.5082782682241573  0.5429903905421887 
C  -4.990763728449202  -3.4353609110950214  0.511593860776146 
C  -4.7570148769241305  -4.684481146329611  -0.015492329839954078 
C  -3.5167209670594355  -5.020678061893896  -0.5326076662182235 
C  -2.4961534090857747  -4.096278808809778  -0.49881387227314566 
H  -4.124980662046934  -1.6071972589565018  0.9445821088044709 
H  -5.8935518897648285  -3.199211808463619  0.8673406908600305 
H  -3.3614367795272737  -5.928962449068483  -0.9290344477521657 
H  -1.5942412621039854  -4.342125239024648  -0.8541430462475101 
112

Co  0.0  0.0  0.0 
P  1.163861505936166  -1.6630773869546776  -3.8181248081924204e-15 
N  1.1638615059361663  1.663077386954678  -6.477574497169016e-16 
C  0.6202036041267652  2.738004641707086  -0.86992891249267 
H  1.3323551334672816  3.3768519336815714  -1.084669585852052 
H  -0.10456367242520681  3.202846573335771  -0.40237130808528715 
H  0.27283056509609427  2.3452232834107374  -1.6986135547598498 
C  1.6553170634806582  2.344808786764095  1.2206032580132542 
H  2.316528184662661  3.0256788796907195  0.9708484586933185 
H  2.071572247768294  1.6892773012471733  1.8177208871698927 
H  0.9030331651020507  2.7738902658326605  1.6805460376724533 
C  2.3463419036621644  1.082211963867588  -0.7132003289789411 
H  2.8927152426341203  1.8245248800816578  -1.0701217893626007 
H  2.0191106625442106  0.5536888765508148  -1.4837652587607006 
C  3.224556844074738  0.20197325309982953  0.1347202041502352 
C  4.494820558476633  0.6396413710776953  0.47814554447857943 
H  4.784760311761758  1.4968369088093683  0.190863436511736 
C  5.344202906667375  -0.1468898933484538  1.227040140975474 
H  6.21567391695871  0.165803760644553  1.4374264926580214 
C  4.93110766393089  -1.3854732185489047  1.6705337113503944 
H  5.508147605794473  -1.9199698342642517  2.203926290304145 
C  3.657916228864874  -1.847288273593562  1.33322097128749 
H  3.37444503041724  -2.705073438126544  1.6289120113238542 
C  2.806745268286568  -1.0714138704409901  0.5723826662575592 
C  1.5885323035406067  -2.1855707909394195  -1.723189382062959 
C  2.9075353652792932  -2.2453793246734617  -2.1746650651473822 
H  3.6096800601580297  -1.943160357629267  -1.6117285470457519 
C  3.2065156015485616  -2.7396407531841236  -3.429314258590331 
H  4.108381569101694  -2.7457579880643523  -3.725214657385145 
C  2.222108657628274  -3.218822745105295  -4.25054675148135 
H  2.4312595318629615  -3.5824454662988936  -5.102778109997702 
C  0.8967897325874715  -3.159732912142112  -3.8022212017196657 
H  0.20139106074506397  -3.4882864234134976  -4.358989822810225 
C  0.5845203721241248  -2.6380401083040876  -2.576784314344604 
H  -0.3252168100619637  -2.5838938155901383  -2.305608267589989 
C  0.9517732041782861  -3.3065510559731144  0.8143898215845707 
C  1.1610071572691973  -4.515602845007388  0.16614214954325804 
H  1.5356087595365862  -4.517276774929012  -0.7055509429711603 
C  0.8314498474262564  -5.7218929074761835  0.7709548103880199 
H  0.9720710811482384  -6.537775367693278  0.3028606107480214 
C  0.29748836210662843  -5.743917943885988  2.0539313534184913 
H  0.05949981004026661  -6.567437213490081  2.4628813768640216 
C  0.11949278837485777  -4.543939677297734  2.7289187869665135 
H  -0.22656057642561445  -4.547432199681575  3.614708542494146 
C  0.44111222258820093  -3.342956854329177  2.1206487659472604 
H  0.3134944151373089  -2.5295574926331694  2.5962685969193773 
N  -1.2869343417595167  1.2869343417595165  -2.959351723946097e-17 
C  -2.280085198929846  2.2819388607126596  -0.09253103352208215 
C  -3.6435204206721528  1.9362864236088548  -0.3888009085291496 
C  -4.579584324234312  2.9379105552841356  -0.5162684624152797 
H  -5.460561071135799  2.706902386552975  -0.7037583218699967 
C  -4.2619002555505485  4.261855172135121  -0.37528515129007245 
H  -4.911614911614041  4.919327801599086  -0.4736889479751562 
C  -2.964577697767628  4.599288406398285  -0.08556740333133583 
H  -2.760192553482785  5.497549331624493  0.032697227930170436 
C  -1.9297914178283597  3.6608667068031266  0.04098092174009321 
C  -0.5618911070488036  4.06478131244021  0.3996019210168119 
H  -0.011413000627373604  3.26018817584593  0.49246644005426876 
C  -0.49014290898203594  4.861074716883655  1.7107362162413848 
H  -0.89682171555685  5.722033928038615  1.5843453344092104 
H  0.42708794805644734  4.975049743148137  1.9671019282320128 
H  -0.9592932746696312  4.3846600880310005  2.400496794841222 
C  0.05371619065669897  4.963503535698751  -0.7050788339676104 
H  -0.11468348805506423  4.573483626421707  -1.5651729442702575 
H  1.0015535558889994  5.038197602703274  -0.5662626770412156 
H  -0.3437028748667188  5.837209765182754  -0.6658023662121848 
C  -4.067645514820774  0.5014720178340777  -0.46630849199422436 
H  -3.3057980660260844  -0.008912502107827125  -0.8109477912168968 
C  -4.34397544220731  0.0025560892332967544  0.975500981347858 
H  -3.596652402968398  0.21882864972658322  1.537829056941094 
H  -4.472059586339163  -0.9487143091575347  0.9652490953086752 
H  -5.134650987345115  0.4283209410085299  1.3147585874731313 
C  -5.244038683266631  0.21069255576797974  -1.3593922717564997 
H  -6.034111983869974  0.6062318209319622  -0.9857314504395251 
H  -5.364000512145614  -0.7393098969859662  -1.4307372041168058 
H  -5.08241513981363  0.5794933398586501  -2.2304302455876086 
N  -2.050041007531976  -2.2129282185337997  -0.006145945771905192 
B  -3.2297834248983572  -3.303480126647493  -0.02938544611312288 
C  -1.3152186130069787  -1.3152186130069787  -1.6328449131239615e-16 
C  -3.3213836782675186  -3.819342267236988  -1.5585437065587602 
C  -4.524442624050925  -4.073065988507218  -2.1943096432330256 
H  -5.329771102257414  -3.9037895272570013  -1.722441587674877 
C  -4.606325825965109  -4.567545712111884  -3.4949364591137893 
H  -5.452399780400872  -4.721992551841491  -3.8992451497487686 
C  -3.4419746891659946  -4.828178984707347  -4.185475920296701 
H  -3.4808435403559876  -5.156819431522828  -5.077078617199358 
C  -2.2397235979893733  -4.613811885658877  -3.591166993382282 
H  -1.4373931103097126  -4.806615687447079  -4.06392178453276 
C  -2.1717880001701038  -4.119306761268068  -2.3034333421561577 
H  -1.3207357396528943  -3.976735758244894  -1.909553983766417 
C  -2.832756426865453  -4.510497460760537  0.9945327136943983 
C  -2.416932165313038  -4.267579995289926  2.300796813512548 
H  -2.3185973587231876  -3.3662797310988752  2.5812918572870824 
C  -2.140036290542982  -5.274382033792842  3.213676832902664 
H  -1.8410427575554307  -5.061568902379849  4.091055854950615 
C  -2.3033758752026063  -6.5936884737831765  2.826743469798303 
H  -2.1289867314286006  -7.297347773071174  3.4411035572545865 
C  -2.7145799967814868  -6.8779340180886175  1.5685079469572705 
H  -2.824219546425251  -7.78526174133157  1.3085168667474394 
C  -2.9816009913044237  -5.858493973478453  0.6405687927401411 
H  -3.2659696478036944  -6.085018684371309  -0.23824046560646295 
C  -4.526317042123513  -2.457355260349318  0.4925825893420648 
C  -5.27329912271257  -2.7916629169181135  1.612967617820367 
H  -5.0580780478582446  -3.5858844994576886  2.0879129060029973 
C  -6.32823116169828  -2.0061237978887663  2.0656390832299354 
H  -6.8155936887421875  -2.273699281693362  2.835257188331494 
C  -6.665291360147581  -0.8619717098937865  1.420573604260514 
H  -7.377031274401854  -0.3203051580011663  1.7383866011912232 
C  -5.957240289145655  -0.4982088076925141  0.2932882136716306 
H  -6.1930318971755085  0.28939067016932185  -0.18263732678029676 
C  -4.899344808498444  -1.284956843852107  -0.14411575250292552 
H  -4.412208993688334  -1.0079283011457623  -0.9127703852576428 
