40

Co  0.0  0.0  0.0 
O  1.1948717776397604  1.3199550882511113  -5.931736371801376e-16 
N  1.1948717776397606  -1.3199550882511117  -2.220446049250313e-16 
C  2.3578809457960466  0.7204599523609578  -0.2328831183845168 
C  3.537060868059208  1.3912970875647168  -0.4985643728288608 
H  3.557061518499279  2.318717320189415  -0.45434643415771614 
C  4.711327664758135  0.6843494131280259  -0.8372066409806642 
H  5.491041740857218  1.1632657570451295  -1.004631355590048 
C  4.741867784543821  -0.6676898311500241  -0.9256551741257317 
H  5.53121743285751  -1.1043571997069972  -1.1516759739310294 
C  3.560194322304027  -1.412434386286726  -0.669363570220177 
C  2.3769520633048087  -0.7038636111710277  -0.28527642754238913 
C  1.0756665539584789  -2.6462288536104355  -0.25714640570441694 
C  -0.18631570030453148  -3.279065498913846  -0.17173141705243478 
H  -0.9411157417954623  -2.776484433160345  0.03262168351461037 
C  -0.3032809799969505  -4.607260848592649  -0.3851121950950689 
H  -1.139732680924587  -5.009850970582393  -0.32792018786017163 
C  0.8388478349973618  -5.4016057807291045  -0.6974240724690373 
H  0.7468765794755052  -6.321252309466956  -0.8065073449637403 
C  2.0549208081248884  -4.829252583469202  -0.8363669082511986 
H  2.7886362635189323  -5.353926946380744  -1.0607459033003748 
C  2.2233184403004698  -3.4236127503304044  -0.6394170492230941 
C  3.4530664148098626  -2.787754559039938  -0.8097635483327033 
H  4.207334550837237  -3.2893669554717473  -1.0199044599128237 
N  -1.2869343417595167  1.2869343417595165  1.9604257551689998e-17 
C  -1.0421739634087104  2.7096952812989032  -0.12903315895756182 
H  -1.4966310150396123  3.047027989641144  -0.9299215482512496 
H  -0.07868090914059933  2.8700889911092613  -0.20917411122527432 
H  -1.3860381985616823  3.173848670211212  0.661631289050492 
C  -2.7311709149450665  1.0608965438220723  0.12950260451763726 
H  -3.0659880022744828  1.5335099831417263  0.9205086127164946 
H  -2.903971228059244  0.10081090292963402  0.22536533940349687 
H  -3.187472624227987  1.3962484935034305  -0.6688790272540343 
Cl  -0.0782809773447577  -2.89492755510952  0.1840911029119081 
Cl  -1.7299198825209396  -1.409485123175584  -2.0806340279414166 
Si  -1.605132393293463  -1.605132393293463  0.0 
C  -3.2189347589116863  -2.7050492406382483  0.42908602127328427 
H  -3.280093734635705  -2.709072892336304  1.274203084120439 
H  -3.8508801384559583  -2.134581465973216  0.18252447653977943 
H  -3.0850150924954116  -3.3900083071315876  0.010729343096005983 
