51

Pd  0.0  0.0  0.0 
P  1.2941505814626053  -1.6784737926163757  2.0555375575803629e-16 
N  2.889915075828891  0.3517457764888313  1.0683894185839986 
H  3.307394586515794  0.20165493437487392  1.8273726511195798 
N  1.2941505814626053  1.6784737926163757  -2.0555375575803629e-16 
C  2.870909621962168  -0.7013795763024266  0.07649490603156725 
H  3.6179746595307023  -1.323113421412579  0.2637440061289195 
H  3.0352219750672207  -0.2988224598479837  -0.8131888909485646 
C  2.2901278027003347  1.5711523284431366  0.8868583247076801 
C  2.737517145228281  2.6762755082984393  1.6339343740754326 
H  3.4338302374987597  2.578412678552404  2.272997472749465 
C  2.1499168267623694  3.8938963099996355  1.423894523086889 
H  2.434156766163646  4.651408471102887  1.9236252432050713 
C  1.1389355423774559  4.022215963215232  0.4810936908735739 
H  0.7319835225270459  4.86366298563103  0.30983192629296386 
C  0.7486715785588571  2.901839429323288  -0.18977654311276315 
H  0.05249686327788661  2.9850655277077314  -0.8301801442512852 
C  1.595212951724749  -2.7669554823734277  -1.4152721541370816 
C  0.7982315068993431  -2.6366164529751885  -2.5485421722790877 
H  0.10439390681726413  -1.9887989834482638  -2.5726834416756703 
C  1.0244615953087788  -3.463816648836293  -3.6509406769341064 
H  0.4909543674497854  -3.3698129707961093  -4.432111718599867 
C  2.0154749223698567  -4.410752503296352  -3.6094195603143757 
H  2.1532326359849985  -4.984389562293353  -4.353950806727038 
C  2.8107038200581167  -4.535332848798231  -2.494643220506164 
H  3.498778142250644  -5.19055343063746  -2.477380072659769 
C  2.6170766019845932  -3.7166778801924414  -1.3960972393118432 
H  3.1760842490651795  -3.800283284469417  -0.6330075284120504 
C  1.2661954304320657  -2.8073096840880796  1.424614572316381 
C  0.4790098535117584  -3.9575398178517798  1.3433921193209086 
H  0.0639998410746716  -4.1846866649918235  0.5191411506157867 
C  0.2963319477241788  -4.767706503791094  2.441169826204779 
H  -0.24285068671562904  -5.54581446755273  2.369283920428591 
C  0.8906999242580484  -4.453402201084252  3.6364150787663707 
H  0.7479553845840077  -5.002902037815273  4.399135745738125 
C  1.6955371075657188  -3.3384750730991715  3.7283150115647015 
H  2.123276998350341  -3.1331741762273446  4.551472977920615 
C  1.8844168864319515  -2.51391960724191  2.62460183647781 
H  2.440404540833077  -1.7460045640222934  2.6962314710612407 
Br  -1.654629867976521  1.654629867976521  0.0 
C  -1.3788582233137676  -1.3788582233137676  0.0 
C  -2.618821778986925  -1.1522995256591737  0.5874691967409313 
H  -2.8106553971707884  -0.30966242518610043  0.9782000501948407 
C  -3.5854032518711887  -2.161278806785389  0.6049610958635797 
H  -4.421117162155692  -2.007227978208148  1.0287619599160838 
C  -3.3399450833386255  -3.3715361338635086  0.016423527177974573 
H  -3.9908757182151104  -4.061238805801311  0.045080339651694 
C  -2.164680252095028  -3.57422256025893  -0.6007549227026177 
H  -2.0132444416912625  -4.3986257169530365  -1.0474288760065327 
C  -1.1561711193052586  -2.601214672555715  -0.5998012209931929 
H  -0.3196784027493984  -2.7832859823079534  -1.0129111498427692 
