59

Ni  0.0  0.0  0.0 
P  1.404573891790676  1.451644647460252  -1.976992034348879e-15 
N  1.404573891790674  -1.451644647460252  1.1102230246251565e-16 
H  1.4854140855860265  -2.103875995301821  -0.7536099202902753 
C  2.89718708880428  0.4723216550962239  0.2795167628748534 
C  4.1709238730240505  1.0034274366308957  0.49819040862558317 
H  4.288525984201254  1.9453006301787235  0.5414407348980977 
C  5.2545971379976555  0.17310269626911712  0.6507018846679898 
H  6.116824282475326  0.5401917844507957  0.8074945906968646 
C  5.088980337124093  -1.1979607650829136  0.5759173928678817 
H  5.843062181782748  -1.769501542263864  0.6600402290992605 
C  3.8352417847109797  -1.7417068715291277  0.3798495629780533 
H  3.72219458188828  -2.6845489006679943  0.35092313866972336 
C  2.7466591598395698  -0.9060279626980896  0.22606880942605911 
C  1.206043929786965  2.460384391420281  1.5021597328987069 
C  1.820668405500938  2.0967992668352693  2.6884103560950923 
H  2.4278026378058364  1.3663320985408798  2.7044078561350995 
C  1.5488909832475641  2.8001721837446447  3.8549482176802847 
H  1.9634249438090083  2.5396097377894566  4.668827261088536 
C  0.6864500348566613  3.86976714124096  3.8416844536185306 
H  0.5092645860607117  4.345904583837029  4.644540575531457 
C  0.08330365238258164  4.250065519336358  2.672928416232412 
H  -0.50471581944145  4.996175813542955  2.6628671223423153 
C  0.33119555546904844  3.5455468709265685  1.4994717922249547 
H  -0.09850790578422375  3.8044667075805276  0.6928864504451298 
C  1.8901303186172729  2.571995125688796  -1.3531131151165852 
C  2.36898460168513  3.859280835224791  -1.126530243716323 
H  2.392020882946335  4.2160539862201905  -0.24623405011187222 
C  2.812800666497922  4.615871683351122  -2.2051894944278487 
H  3.131227066608398  5.4992335255509435  -2.060384026789302 
C  2.796772267156747  4.103191130777818  -3.4733352358265828 
H  3.118273856703997  4.623521806278539  -4.200039134296656 
C  2.315124303416636  2.8343463461932816  -3.6997518687350803 
H  2.293484420651006  2.4841948846153414  -4.582688763098869 
C  1.8602072541003225  2.064595748514316  -2.6322491916357507 
H  1.5282457142792352  1.187739269053592  -2.786485473059283 
C  0.9267790995659224  -2.2148652069397277  1.1662580692585927 
C  0.688148574907925  -3.572326847739775  1.0252603868028363 
H  0.8533471271311045  -4.011051921478895  0.19914703016466404 
C  0.2073398179876469  -4.269950124050396  2.105710225350843 
H  0.019680631285462935  -5.196393236249332  2.016489378541209 
C  -0.005458096753935715  -3.657688685581286  3.304189223266704 
H  -0.323344694022464  -4.159686489434279  4.045113798512945 
C  0.24339503174060906  -2.2994433474748823  3.4389704606504745 
H  0.09033251239447204  -1.8680706343969424  4.2710904385281765 
C  0.71809779297106  -1.5696530252679417  2.3519139606959785 
H  0.89402812409878  -0.6395282923573891  2.433440029026076 
Br  -1.5839191898578664  1.5839191898578664  0.0 
C  -1.308147545195113  -1.308147545195113  0.0 
C  -2.5481111008682706  -1.081588847540519  0.5874691967409313 
H  -2.7399447190521347  -0.23895174706744582  0.9782000501948406 
C  -3.514692573752534  -2.090568128666735  0.6049610958635798 
H  -4.3504064840370384  -1.9365173000894942  1.0287619599160838 
C  -3.2692344052199704  -3.300825455744854  0.016423527177974795 
H  -3.920165040096455  -3.990528127682657  0.045080339651694334 
C  -2.0939695739763726  -3.5035118821402764  -0.6007549227026172 
H  -1.9425337635726068  -4.327915038834382  -1.0474288760065322 
C  -1.0854604411866036  -2.53050399443706  -0.5998012209931928 
H  -0.24896772463074335  -2.712575304189299  -1.0129111498427692 
