22

Co  0.0  0.0  0.0 
O  1.0463699298049436  1.3902193963544027  2.1264273786787197e-15 
C  2.3071058558764745  1.2499314025949761  -0.31740684226956467 
C  3.12024455601625  2.3951565765315723  -0.43380965717067604 
C  4.445908562322593  2.3017915218212357  -0.7332715227609782 
C  5.053347975706652  1.06117034754989  -0.9288428678430982 
C  4.301151937585608  -0.06575339852091755  -0.8299628861644694 
C  2.930516468273468  -0.011549781309414753  -0.4954148505332282 
C  2.2368873363067676  -1.2456799944967303  -0.2803326704592818 
O  1.0463699298049427  -1.3902193963544032  0.0 
H  2.7313383407633935  3.260929902062967  -0.3009710914753079 
H  4.971940763661237  3.0987538882688646  -0.8096660227006066 
H  5.991099597715038  1.0023560336261932  -1.1307797191068818 
H  4.709609581472523  -0.9163967380550246  -0.9950099159972385 
H  2.756236702777305  -2.0451388589856774  -0.36293950756551335 
F  -2.549068995021203  0.8998849065116561  0.24900089769358377 
F  -1.4001472972228017  1.92367882421668  -1.1637454618480854 
F  -1.116373504651234  2.2420260661669023  0.9147445641545013 
C  -1.3152186130069785  1.3152186130069785  0.0 
O  -2.94960275437571  -2.9500671216195853  0.0006680144186237413 
N  -1.2869343417595167  -1.2869343417595167  -2.137465431202609e-16 
C  -2.107362083141391  -2.1068977158975146  -0.0006680144186244075 
