80

Pd  0.0  0.0  0.0 
P  1.5832911782107546  1.4090028548587124  0.0 
N  1.5832911782107546  -1.409002854858712  0.0 
N  2.9978428436500044  0.4205920221924786  0.19533487059696214 
C  2.7680701680924114  -0.9251119225948674  0.19718704523335073 
H  3.5912326512464343  -1.516530312647427  0.3693120992939006 
C  1.397197928371946  -2.8329404168597385  0.11906100069714289 
C  0.9595928484661151  -3.3630076253288737  1.3363741356572487 
C  0.7705076877426776  -4.741865438356384  1.4124082296361118 
H  0.4737826015436353  -5.118380406491914  2.232587449069338 
C  1.0000556286430675  -5.584231879210058  0.33600980333108954 
C  1.4025636709444078  -5.014377788970819  -0.8664540222039601 
H  1.5486981482596067  -5.576903966449344  -1.6172721188100667 
C  1.5966371429635589  -3.6428396310912303  -1.0026342665079568 
C  0.7052826379005929  -2.4777276447392804  2.522690249839911 
H  1.5496838238826554  -2.078319369547083  2.818510764375515 
H  0.3223599522630125  -3.010232708453461  3.2507183220616267 
H  0.07703203381646895  -1.7688491165263942  2.271444810664043 
C  0.8380806492816946  -7.0773844854984  0.45912625387777867 
H  1.7000926836569281  -7.483319500482706  0.6873501487748462 
H  0.5202537029174252  -7.441983789345457  -0.3932281910563822 
H  0.18632100033539367  -7.2791882426870345  1.1627151562845477 
C  2.0104246437084066  -3.0548581006470825  -2.3192184658981634 
H  1.429525865109406  -2.2943980765206975  -2.535160450532683 
H  1.933228378757235  -3.735717150500603  -3.020486881635075 
H  2.9406364980048645  -2.748312046811505  -2.2623499068852966 
C  4.346754928044385  0.9184758040321861  -0.053751797765309556 
C  5.0661419235078595  1.5627693353543992  0.9602948117425796 
C  6.323778634755594  2.078719457451844  0.6310583860092993 
H  6.823095420117275  2.528052996994946  1.3027825244007762 
C  6.86448253700624  1.9590938375187306  -0.6322060444036628 
C  6.124014484570338  1.2995188715807156  -1.6045868790716826 
H  6.48940518154771  1.2025017580038186  -2.475894774270382 
C  4.867667592152769  0.7804629076569691  -1.3421467864258814 
C  4.548615735095544  1.7174153953312268  2.360117443521739 
H  3.9808259592532833  2.5158654560394518  2.413044667178599 
H  5.302585741302325  1.8119688978600483  2.978653590323302 
H  4.02247943324  0.9267388603914064  2.603329982189743 
C  8.235117618101217  2.5098920224364045  -0.9543840758757253 
H  8.315773198567017  3.4160351083764455  -0.593282157931787 
H  8.357050961272183  2.533391438981818  -1.9271659719064782 
H  8.920088265735263  1.9349228006165986  -0.5540554910360362 
C  4.1218672125594615  0.07140001147129538  -2.4448911552853705 
H  4.239659929366641  -0.8960693661096977  -2.3478593599282247 
H  4.472325210265986  0.3569467714459895  -3.3136034492650888 
H  3.1679578644761857  0.29195768027116675  -2.3878167269226127 
C  2.048139876483148  2.6583923035241828  -1.1935274246023422 
C  1.595180660403151  2.5542380468497234  -2.5134866888922796 
H  0.9767404647275856  1.8741264227351708  -2.7499729741543035 
C  2.051458692692661  3.4410085283228007  -3.4704702521983726 
H  1.7562319339825812  3.359647206303694  -4.370042142722355 
C  2.9324298891528073  4.447954238267632  -3.1237194941151305 
H  3.232270954303311  5.0624016128876175  -3.784256737177192 
C  3.382610760701042  4.568440523596715  -1.8120328135622983 
H  3.9861985386610623  5.262733843604286  -1.5760516912449345 
C  2.9468371090345604  3.6728609187374097  -0.8557973949161787 
H  3.2602184368923757  3.746408221812527  0.03796392532568582 
C  1.279314536779286  2.2072833914249697  1.5859038547161641 
C  1.2799129992956768  1.3972990992963044  2.7242701614678513 
H  1.4743863559966148  0.4711474236626505  2.6470258914250686 
C  0.9974109952543508  1.939050120146113  3.9622390258262623 
H  1.0121140803854327  1.3912431144055901  4.737753696060949 
C  0.6954649359432619  3.286727503092516  4.066719783677851 
H  0.5077966701689842  3.6632402107642106  4.919110482232811 
C  0.6664786922122374  4.085167180571248  2.9448530451112522 
H  0.45199411603678863  5.007068850621628  3.029169694363679 
C  0.9474696246593949  3.555236767424658  1.6930061442863937 
H  0.91384290994633  4.105204840468558  0.9188756819675448 
Br  -1.654629867976521  1.654629867976521  0.0 
C  -1.352040782177733  -1.3199206589279684  -0.4819701001757076 
C  -1.6380700204479186  -1.599217458033982  -1.8139382277462257 
H  -1.1579680913617836  -1.159339363685303  -2.503515938957912 
C  -2.63068216563725  -2.52632649780156  -2.142289956238523 
H  -2.8368222554424674  -2.694399528648736  -3.0538898079700485 
C  -3.3101544432602585  -3.1961573187854975  -1.1619874135498987 
H  -3.9960123560788676  -3.811990145619169  -1.3868663427944008 
C  -2.9974710358883443  -2.9701089012107795  0.12423560353005347 
H  -3.438659168087169  -3.468581175155742  0.8017084178296768 
C  -2.0389854250767776  -2.015940632791841  0.4912562833419403 
H  -1.8619130127668426  -1.8492165108145995  1.4101568590026907 
