24
Ligand ID: unq_CSD-PIHMOK-02-a  ===  Stoichiometry: C10H10N1S2  ===  Charge: -1  ===  Donors: S-S
Cu  0.0  0.0  0.0 
C  4.5997  1.9044999999999996  -1.529300000000001 
H  5.3826  1.600699999999999  -1.0442999999999998 
H  4.258099999999999  1.1530999999999993  -2.0380000000000003 
C  4.984  2.9264  -2.4263000000000012 
H  4.9773  2.5378999999999996  -3.3134000000000006 
H  5.908899999999999  3.141799999999999  -2.224400000000001 
C  4.2890999999999995  4.1587000000000005  -2.5145999999999997 
H  3.484399999999999  4.041799999999999  -3.0443000000000007 
H  4.847899999999999  4.818599999999999  -2.9518000000000004 
C  3.9216999999999995  4.640199999999999  -1.1270000000000007 
C  3.9498999999999995  5.9827  -0.7780000000000005 
H  4.1008  6.6293  -1.4298000000000002 
C  3.7545  6.3554  0.5337999999999994 
H  3.7622999999999998  7.2565  0.7637 
C  3.5486000000000004  5.406999999999999  1.5023 
H  3.4436999999999998  5.669300000000001  2.3880999999999997 
C  3.4932999999999996  4.055699999999999  1.1729000000000003 
H  3.3550000000000004  3.410899999999999  1.828899999999999 
C  3.6472999999999995  3.6986  -0.13889999999999958 
C  2.4718  1.5745999999999993  -0.33370000000000033 
N  3.569699999999999  2.3274  -0.555200000000001 
S  2.376099999999999  -0.02400000000000002  -0.9230999999999998 
S  1.1319  2.1702000000000004  0.5298999999999996 
21
Ligand ID: unq_CSD-PABLUZ-01-a  ===  Stoichiometry: C8H11Sb1  ===  Charge: 0  ===  Donors: Sb
Cu  0.0  0.0  0.0 
Sb  1.8093000000000001  -1.1543  -1.4496999999999998 
C  1.4145  -2.8458  -2.7121999999999997 
C  3.5366999999999997  -1.8006000000000002  -0.42890000000000006 
C  2.6834  0.07289999999999974  -2.9832 
C  4.047  0.07249999999999979  -3.2321 
C  4.582599999999999  0.8645999999999998  -4.2576 
C  3.7501999999999995  1.6334999999999997  -5.0341000000000005 
C  2.3972999999999995  1.6264999999999996  -4.800599999999999 
C  1.8691000000000002  0.8281999999999998  -3.7674 
H  0.8354000000000001  -2.5861  -3.4183 
H  1.0023000000000002  -3.5325  -2.2011 
H  2.2317  -3.1681  -3.0734999999999997 
H  3.285  -2.362  0.29590000000000005 
H  4.0941  -2.2855000000000003  -1.0248 
H  4.0085  -1.0461000000000003  -0.09509999999999996 
H  4.6219  -0.4688000000000001  -2.7045 
H  5.5188999999999995  0.8703999999999996  -4.414 
H  4.1094  2.1689000000000003  -5.7324 
H  1.8183  2.1602  -5.3337 
H  0.9305999999999999  0.8184  -3.6153999999999997 
11
Ligand ID: unq_CSD-PAHWIE-02-a  ===  Stoichiometry: C4H3N2S1  ===  Charge: -1  ===  Donors: S-N
Cu  0.0  0.0  0.0 
S  2.4194000000000004  -0.8888000000000003  0.2397999999999998 
N  0.5536999999999999  -2.0292000000000003  -1.2035 
N  2.7672999999999996  -2.9373000000000005  -1.4164999999999996 
C  1.9076000000000002  -2.0867000000000004  -0.8864000000000001 
C  0.13870000000000005  -2.9448000000000003  -2.0307999999999997 
C  0.9391  -3.8816  -2.6582999999999997 
C  2.2831  -3.8192000000000004  -2.2784999999999997 
H  -0.8099999999999999  -2.966  -2.2388 
H  0.6091  -4.5361  -3.3286999999999995 
H  2.9125999999999994  -4.4524  -2.6963 
34
Ligand ID: unq_CSD-POHNUW-02-a  ===  Stoichiometry: C15H15N1O2  ===  Charge: 0  ===  Donors: O-O
Cu  0.0  0.0  0.0 
O  -1.5743000000000005  1.2725999999999997  0.3794999999999997 
O  -0.3766000000000007  1.6627999999999998  -1.9085000000000003 
N  -3.2954000000000003  2.023600000000001  2.149 
H  -2.7285000000000004  1.4683000000000002  1.7732999999999999 
C  -5.6936  0.19259999999999966  6.9841 
H  -5.3691  -0.6917  7.1709 
H  -6.6487  0.17300000000000093  6.8978 
H  -5.449  0.7821000000000007  7.7027 
C  -5.082400000000001  0.6904000000000012  5.694699999999999 
C  -5.3668000000000005  1.924500000000001  5.191699999999999 
H  -5.9676  2.4651000000000005  5.6495999999999995 
C  -4.803100000000001  2.3991  4.042 
H  -5.018000000000001  3.2516000000000007  3.7401999999999997 
C  -3.9240000000000004  1.6273000000000009  3.3370999999999995 
C  -3.6272  0.3761000000000001  3.8222999999999994 
H  -3.0281000000000002  -0.16699999999999982  3.3624 
C  -4.210800000000001  -0.08009999999999984  4.9823 
H  -4.0076  -0.9350999999999994  5.2882 
C  -3.4090000000000003  3.1207000000000003  1.4783 
H  -3.9890000000000003  3.7775000000000007  1.7917999999999994 
C  -1.8021000000000003  2.4089  -0.23500000000000032 
C  -2.6883000000000004  3.3640999999999996  0.2864 
C  -2.8518000000000003  4.610500000000001  -0.3742000000000001 
H  -3.4272  5.251400000000001  -0.02320000000000011 
C  -2.1756  4.863600000000001  -1.5137 
H  -2.2660000000000005  5.6917  -1.9284000000000001 
C  -1.3274000000000004  3.8815  -2.0824000000000003 
H  -0.8865000000000003  4.0539  -2.8831 
C  -1.1643000000000003  2.6925999999999997  -1.4603000000000002 
C  0.23939999999999984  1.7753000000000005  -3.1726 
H  0.7559999999999993  0.9864000000000006  -3.3471 
H  0.8136999999999999  2.543400000000001  -3.1808 
H  -0.4353000000000007  1.871900000000001  -3.8481 
25
Ligand ID: unq_CSD-PAZVUI-02-a  ===  Stoichiometry: C10H10N4  ===  Charge: 0  ===  Donors: N-N
Cu  0.0  0.0  0.0 
N  1.1355999999999997  2.2859999999999996  0.8061000000000007 
N  2.0238  2.0775999999999994  1.6496000000000013 
N  3.2581  0.30489999999999995  2.6807 
N  1.5284  -0.30180000000000007  1.3864999999999998 
C  0.8454999999999999  3.6342999999999996  0.5353000000000012 
C  -0.00990000000000002  3.907  -0.5015999999999998 
H  -0.3976000000000002  3.2006999999999994  -0.9658999999999995 
C  2.2215000000000003  0.7231999999999998  1.8720999999999997 
C  0.23199999999999976  6.2222  -0.17859999999999943 
H  0.030999999999999694  7.0894  -0.4474999999999998 
C  2.0646  -1.4341000000000002  1.883700000000001 
H  1.7555  -2.2982  1.7289000000000012 
C  -0.2996000000000003  5.1573  -0.8594999999999988 
H  -0.8688000000000002  5.309  -1.5810999999999993 
C  3.156  -1.0909000000000002  2.6633000000000013 
H  3.7234000000000003  -1.6838000000000002  3.1005000000000003 
C  1.0429999999999997  6.016799999999999  0.8719000000000001 
H  1.3691  6.741599999999999  1.3556000000000008 
C  1.3944999999999994  4.716  1.2394999999999996 
H  1.9849  4.5689  1.9436999999999998 
C  4.2028  1.048  3.3520000000000003 
H  4.7796  0.4596999999999998  3.8473000000000006 
H  3.7657000000000003  1.6502  3.957600000000001 
H  4.7234  1.5506000000000002  2.721400000000001 
11
Ligand ID: unq_CSD-PABGEF-01-a  ===  Stoichiometry: C3H6O1  ===  Charge: 0  ===  Donors: O
Cu  0.0  0.0  0.0 
O  1.8813000000000004  -1.5545000000000009  0.5510999999999999 
C  2.5253000000000005  -2.181800000000001  1.3240999999999996 
C  1.9854000000000003  -2.5284000000000004  2.6430999999999996 
H  1.0510000000000002  -2.3116000000000003  2.6719999999999997 
H  2.4512  -2.0326000000000004  3.3187000000000006 
H  2.101  -3.4686000000000003  2.7979000000000003 
C  3.8842  -2.667700000000001  0.9666999999999994 
H  4.0133  -2.586400000000001  0.01869999999999994 
H  3.9724000000000004  -3.5889000000000006  1.2253999999999996 
H  4.5434  -2.1420000000000012  1.4261999999999997 
29
Ligand ID: unq_CSD-PILSAH-03-a  ===  Stoichiometry: C12H10N5O1  ===  Charge: -1  ===  Donors: N-N-O
Cu  0.0  0.0  0.0 
C  -2.8894  -1.4512000000000005  1.5616999999999992 
H  -3.1979000000000006  -1.4712000000000005  0.6840999999999999 
C  -3.6835000000000004  -1.9868000000000006  2.5603999999999996 
H  -4.509500000000001  -2.3511000000000006  2.3373999999999997 
C  -2.1129  -1.4434000000000005  4.0872 
H  -1.8163  -1.4241000000000006  4.9677 
C  -1.3002000000000002  -0.8977000000000004  3.1083 
C  0.013599999999998502  -0.3119000000000005  3.4118999999999993 
C  0.507299999999999  -0.22780000000000022  4.823799999999999 
H  1.3953999999999986  0.13889999999999958  4.831 
H  0.520999999999999  -1.1054000000000004  5.2108 
H  -0.07650000000000112  0.3388  5.333099999999999 
C  2.6019999999999985  0.8975999999999997  1.5621999999999998 
C  3.9445999999999994  1.5188999999999995  1.7516999999999996 
C  4.6168  2.1193999999999997  0.7070999999999996 
H  4.2378  2.134099999999999  -0.14180000000000081 
C  5.851700000000001  2.6998999999999995  0.9243999999999994 
H  6.3050999999999995  3.1258999999999997  0.2322999999999995 
C  6.398699999999998  2.6334999999999997  2.1876999999999995 
H  7.229499999999998  3.024  2.3373999999999997 
C  4.5838  1.4958  2.9848999999999997 
H  4.1495  1.0820999999999996  3.6956999999999995 
N  -1.7010000000000005  -0.9085000000000005  1.8116999999999992 
N  -3.2940000000000005  -1.9938000000000002  3.833199999999999 
N  0.7063999999999986  0.09329999999999927  2.3908999999999994 
N  1.9494999999999987  0.6351999999999993  2.6792999999999996 
N  5.779299999999999  2.0298999999999996  3.2073 
O  2.189  0.6605999999999996  0.37460000000000004 
8
Ligand ID: unq_CSD-PAGBOP-01-a  ===  Stoichiometry: F6P1  ===  Charge: -1  ===  Donors: F
Cu  0.0  0.0  0.0 
P  -2.8136999999999994  2.3863  2.351000000000001 
F  -3.4383999999999997  1.9777999999999998  0.9597999999999995 
F  -4.249599999999999  2.7731  2.8699000000000012 
F  -2.5898999999999996  3.842  1.8192000000000004 
F  -1.3788  1.9929999999999999  1.8143000000000011 
F  -2.1680999999999995  2.7788  3.720600000000001 
F  -3.0496999999999996  0.94  2.882200000000001 
25
Ligand ID: unq_CSD-PAZTIW-01-d  ===  Stoichiometry: C12H10N2  ===  Charge: 0  ===  Donors: N
Cu  0.0  0.0  0.0 
N  1.0972  -1.3434  1.9184 
N  6.329  -4.8003  8.823899999999998 
C  2.2266000000000004  -1.9373  1.8673000000000002 
H  2.6674999999999995  -1.9369  1.0267999999999997 
C  2.8752000000000004  -2.5804  2.9054 
H  3.689800000000001  -3.0428  2.7489999999999997 
C  2.319400000000001  -2.5406  4.179899999999999 
C  1.0606  -1.9675  4.3051 
H  0.6146000000000003  -1.9854  5.1437 
C  0.46030000000000015  -1.3793000000000002  3.2279 
H  -0.39649999999999963  -0.9826999999999999  3.3373999999999997 
C  6.822  -4.9874  7.6713 
H  7.637300000000001  -5.4604  7.5813999999999995 
C  6.169300000000001  -4.515000000000001  6.539499999999999 
H  6.609000000000001  -4.5367  5.6969 
C  4.8922  -4.0129  6.633299999999999 
C  4.3488999999999995  -3.9775  7.9157 
H  3.4606000000000003  -3.6775  8.068200000000001 
C  5.1459  -4.3915  8.951799999999999 
H  4.7832  -4.3756  9.8275 
C  2.9928999999999997  -3.0388  5.387999999999999 
H  2.5142999999999995  -2.9827  6.2071 
C  4.2123  -3.5603000000000002  5.433000000000001 
H  4.6789  -3.6455  4.61 
20
Ligand ID: unq_CSD-PIHPAX-02-a  ===  Stoichiometry: C4H10O2P1S2  ===  Charge: -1  ===  Donors: S-S
Cu  0.0  0.0  0.0 
S  -2.4058  0.4726999999999997  -0.9311000000000001 
S  -1.4484  0.4623999999999997  2.1656 
P  -2.971  0.09409999999999963  0.9682 
O  -4.2413  0.9638  1.4017999999999997 
C  -4.3019  2.3448999999999995  1.2984999999999998 
C  -4.3282  2.9076  2.6611000000000002 
O  -3.3827000000000003  -1.3484000000000003  1.1953 
C  -4.3246  -2.0749000000000004  0.4520999999999997 
C  -4.184200000000001  -3.4356  0.5347 
H  -3.4568000000000003  2.7235  0.7824 
H  -5.2023  2.6313999999999997  0.7824 
H  -4.383  3.9819  2.6197999999999997 
H  -3.4278  2.6108999999999996  3.1773 
H  -5.1917  2.5291  3.1978999999999997 
H  -4.2236  -1.7884000000000002  -0.6008000000000001 
H  -5.3095  -1.8088000000000002  0.7824 
H  -4.9494  -3.9164000000000003  -0.06400000000000006 
H  -4.2974  -3.7425  1.5669 
H  -3.2115  -3.7220000000000004  0.18369999999999997 
25
Ligand ID: unq_CSD-PERLUW-03-a  ===  Stoichiometry: C9H11N3O1  ===  Charge: 0  ===  Donors: N-N-O
Cu  0.0  0.0  0.0 
C  0.8103999999999996  2.9816999999999996  -1.7046999999999999 
H  1.4120999999999988  3.0063999999999997  -0.9969000000000001 
C  0.7090999999999994  4.0931999999999995  -2.5097 
H  1.2492  4.8355999999999995  -2.3632999999999997 
C  -0.19870000000000054  4.0846  -3.53 
H  -0.3117000000000001  4.8332  -4.0718 
C  -0.944700000000001  2.9464  -3.7422 
H  -1.565500000000001  2.9171  -4.4335 
C  -0.7658000000000005  1.8538999999999999  -2.9259999999999997 
C  -1.4622000000000002  0.5722  -3.1683 
C  -2.2711000000000006  0.37559999999999993  -4.4089 
H  -2.651300000000001  -0.5053999999999998  -4.4076 
H  -1.706900000000001  0.47929999999999984  -5.1789000000000005 
H  -2.9758000000000004  1.0276999999999998  -4.4387 
C  -1.7971000000000004  -2.3942  -1.4078 
C  -2.3621000000000008  -3.7513  -1.6165999999999998 
H  -2.654300000000001  -3.8407  -2.5279 
H  -3.1085000000000003  -3.8828  -1.0279999999999998 
H  -1.688200000000001  -4.4103  -1.4311999999999998 
N  0.09359999999999857  1.8752  -1.8826999999999998 
N  -1.2943000000000007  -0.31320000000000014  -2.2643 
N  -1.8233000000000006  -1.5679  -2.4571 
O  -1.3531000000000004  -2.0156  -0.3188 
H  -1.961500000000001  -1.8049  -3.1787 
21
Ligand ID: unq_CSD-PAVVUE-02-a  ===  Stoichiometry: C8H8N3S1  ===  Charge: -1  ===  Donors: S-N
Cu  0.0  0.0  0.0 
S  1.8040000000000003  1.3795000000000002  0.6553999999999993 
N  1.146700000000001  0.9975000000000005  -2.25 
N  2.5112000000000005  1.0175  -2.0039 
N  4.169000000000002  1.1179000000000006  -0.4687999999999999 
H  4.437800000000001  1.3261000000000003  0.28549999999999986 
H  4.725199999999999  1.1254000000000008  -1.0858999999999996 
C  -0.8551000000000002  2.1554  -5.037599999999999 
H  -0.18319999999999936  2.6910000000000007  -5.4391 
C  -2.1562  2.1943  -5.5312 
H  -2.3686999999999987  2.7651000000000003  -6.2596 
C  -3.1384999999999987  1.4064000000000014  -4.9666999999999994 
H  -4.0272999999999985  1.434000000000001  -5.3035 
C  -2.8218999999999994  0.5747  -3.9085 
H  -3.4933999999999994  0.02400000000000091  -3.5237999999999996 
C  -1.5390999999999995  0.5371000000000006  -3.4080000000000004 
H  -1.3366999999999987  -0.037499999999999645  -2.6788999999999996 
C  -0.5327999999999999  1.3337000000000003  -3.9573 
C  0.8391000000000002  1.334900000000001  -3.4551999999999996 
H  1.4880000000000013  1.614700000000001  -4.0799 
C  2.8633000000000006  1.1392000000000007  -0.7446000000000002 
24
Ligand ID: unq_CSD-POLFEC-02-d  ===  Stoichiometry: C12H6N4S1  ===  Charge: 0  ===  Donors: N-N
Cu  0.0  0.0  0.0 
S  4.1475  -6.6052  -2.3706999999999994 
N  2.5574000000000003  -6.2813  -2.4734 
C  2.4018000000000006  -5.0422  -1.9817 
C  1.1415000000000006  -4.3501  -1.8672000000000004 
C  -0.05649999999999977  -4.864  -2.3457999999999997 
H  -0.07430000000000003  -5.6928  -2.768 
C  -1.2033999999999998  -4.1491  -2.1975 
H  -2.0146999999999995  -4.4765  -2.5146999999999995 
C  -1.1278999999999995  -2.9079  -1.553799999999999 
H  -1.9168999999999996  -2.4314  -1.431799999999999 
N  -0.0031999999999996476  -2.3733  -1.109 
C  1.1371000000000002  -3.0737  -1.2853999999999992 
C  2.3929  -2.4562  -0.8255999999999997 
N  2.3173000000000004  -1.2067  -0.31879999999999953 
C  3.4398  -0.5872000000000002  0.058400000000000674 
H  3.3864  0.28310000000000013  0.3775000000000013 
C  4.682300000000001  -1.1985000000000001  -0.010999999999999233 
H  5.4424  -0.7591999999999999  0.29490000000000016 
C  4.7756  -2.4687  -0.5383999999999993 
H  5.6047  -2.8831  -0.6210000000000004 
C  3.6154  -3.1255  -0.9493999999999989 
C  3.5954000000000006  -4.4579  -1.5350000000000001 
N  4.6978  -5.2120999999999995  -1.702 
19
Ligand ID: unq_CSD-PASZIT-02-a  ===  Stoichiometry: C6H2N3O7  ===  Charge: -1  ===  Donors: O-O
Cu  0.0  0.0  0.0 
O  2.6638  -3.6085999999999996  -1.3710000000000002 
O  1.3309000000000006  -2.0968  -0.7101000000000002 
O  1.8106  0.44090000000000007  -1.4446000000000003 
O  2.143700000000001  2.4745999999999997  -3.3930000000000002 
O  4.1636  2.8808  -2.912 
O  6.3807  -0.9758999999999993  -5.417400000000001 
O  5.834500000000001  -2.9527  -4.7791 
N  2.2946  -2.4514999999999993  -1.3915000000000002 
N  3.2474000000000007  2.1281000000000008  -3.0807 
N  5.7206  -1.7394999999999996  -4.7381 
C  3.0172000000000008  -1.4987999999999992  -2.2190000000000003 
C  4.003000000000001  -2.0280999999999993  -3.0351 
H  4.166900000000001  -2.9436  -3.0465 
C  4.731800000000001  -1.1803999999999997  -3.8262 
C  4.5284  0.18660000000000032  -3.8148 
H  5.058700000000001  0.7530000000000001  -4.3254 
C  3.5246000000000004  0.6851000000000003  -3.0283 
C  2.6994000000000007  -0.12729999999999997  -2.1597000000000004 
21
Ligand ID: unq_CSD-SOFLEH-02-a  ===  Stoichiometry: C10H8N1O1  ===  Charge: -1  ===  Donors: O-N
Cu  0.0  0.0  0.0 
O  -1.1018000000000001  -1.2578999999999998  1.5593999999999983 
N  -2.4174  -0.6660999999999999  -0.7143000000000015 
C  -3.1002  -0.3066  -1.8082000000000011 
C  -4.2757000000000005  -0.9936999999999998  -2.193200000000001 
H  -4.7309  -0.7371999999999999  -2.9871000000000008 
C  -4.7642  -2.0227999999999997  -1.4389000000000003 
H  -5.5532  -2.4779999999999998  -1.7090000000000014 
C  -4.0931  -2.4105999999999996  -0.24960000000000093 
C  -4.537100000000001  -3.437  0.6094999999999988 
H  -5.3193  -3.9322999999999997  0.3954999999999984 
C  -3.8426  -3.7169  1.7518999999999991 
H  -4.146100000000001  -4.411099999999999  2.3259999999999987 
C  -2.6658  -2.9835  2.0992999999999995 
H  -2.1978  -3.1967  2.8973999999999993 
C  -2.1996  -1.9670999999999998  1.2855999999999987 
C  -2.9124  -1.6710999999999998  0.07589999999999897 
C  -2.6344000000000003  0.8764000000000003  -2.6000000000000014 
H  -2.0185  1.4117000000000002  -2.0574000000000012 
H  -3.4068  1.4246000000000003  -2.8534000000000006 
H  -2.1742  0.5682  -3.408500000000001 
14
Ligand ID: unq_CSD-PALLIZ-01-e  ===  Stoichiometry: C3H9Ge1  ===  Charge: -1  ===  Donors: Ge
Cu  0.0  0.0  0.0 
Ge  0.03950000000000031  -1.0257999999999998  2.4305000000000003 
C  1.804800000000001  -1.8875  2.9265 
H  2.4830999999999994  -1.1931999999999998  3.0557999999999996 
H  2.0871000000000004  -2.4898  2.2066 
H  1.697400000000001  -2.3979  3.7559000000000005 
C  -0.39699999999999935  0.07339999999999991  4.0198 
H  -1.2940999999999994  0.45330000000000004  3.9175000000000004 
H  0.25710000000000033  0.7974999999999999  4.106 
H  -0.37049999999999983  -0.48729999999999984  4.8223 
C  -1.1285999999999996  -2.6258999999999997  2.6445999999999996 
H  -0.9394999999999998  -3.0549  3.5046 
H  -0.9501  -3.2603  1.9176000000000002 
H  -2.0683  -2.3508999999999998  2.6140999999999996 
25
Ligand ID: unq_CSD-PIBZOR-01-b  ===  Stoichiometry: C9H11N3S1  ===  Charge: 0  ===  Donors: S
Cu  0.0  0.0  0.0 
S  -1.8567999999999998  -1.5716999999999999  0.7955000000000005 
N  -2.3615999999999993  -2.9905  -2.8497999999999997 
N  -1.7719000000000005  -2.3835000000000006  -1.7544999999999997 
H  -0.9779999999999998  -2.0571  -1.8044999999999995 
N  -3.6563999999999997  -2.8449  -0.6006999999999998 
H  -3.9721  -3.2218  -1.3063999999999996 
H  -4.1249  -2.8167  0.1186000000000007 
C  -1.6892999999999994  -4.1047  -6.2109 
H  -0.7814999999999994  -3.9227  -6.2949 
C  -2.367799999999999  -4.7575  -7.238199999999999 
H  -1.9023000000000003  -5.0135000000000005  -8.002699999999999 
C  -3.6989  -5.0252  -7.145099999999999 
H  -4.1394  -5.4573  -7.840299999999999 
C  -4.3848  -4.6530000000000005  -6.019399999999999 
H  -5.2928999999999995  -4.837400000000001  -5.9445 
C  -3.7223999999999995  -4.0038  -4.997599999999999 
H  -4.2005  -3.7431  -4.2421999999999995 
C  -2.368499999999999  -3.7278000000000002  -5.0638 
C  -1.6771999999999991  -3.0574000000000003  -3.9345999999999997 
C  -2.4649  -2.3177000000000003  -0.6225999999999998 
C  -0.2956000000000003  -2.5103  -4.1072 
H  -0.26069999999999993  -1.6156000000000006  -3.7622999999999998 
H  -0.06819999999999915  -2.5033000000000003  -5.039499999999999 
H  0.3287999999999993  -3.0621  -3.6290999999999998 
6
Ligand ID: unq_CSD-PAKJUI-01-a  ===  Stoichiometry: Cl1O4  ===  Charge: -1  ===  Donors: O
Cu  0.0  0.0  0.0 
Cl  -1.1665999999999999  -1.9641000000000002  -3.0915 
O  -1.5302999999999995  -2.9117000000000006  -2.0465 
O  -2.2607  -1.8321000000000005  -3.9884 
O  -0.9090999999999996  -0.7218  -2.4788 
O  -0.05739999999999945  -2.4547000000000008  -3.7815 
20
Ligand ID: unq_CSD-PENSOT-03-a  ===  Stoichiometry: C7H9N1O2  ===  Charge: 0  ===  Donors: O-O-N
Cu  0.0  0.0  0.0 
O  1.4222000000000001  0.29710000000000036  -2.0207999999999995 
O  -1.8219999999999996  -1.6641999999999997  0.002000000000000668 
N  0.16809999999999992  -2.0012999999999996  -1.6458999999999997 
C  -0.6189999999999998  -3.082  -1.4994999999999994 
C  -0.44079999999999986  -4.2306  -2.2472999999999996 
H  -0.9893999999999998  -4.9925999999999995  -2.0992999999999995 
C  0.5449000000000002  -4.253299999999999  -3.2109999999999994 
H  0.6794000000000002  -5.0287999999999995  -3.7436 
C  1.3357999999999999  -3.1323999999999996  -3.3931999999999993 
H  2.0116000000000005  -3.1224999999999996  -4.0611 
C  1.1289000000000007  -2.0256  -2.5887999999999995 
C  -1.7231999999999998  -2.9903999999999997  -0.4902999999999995 
H  -2.5805  -3.2546  -0.9086999999999996 
H  -1.5416999999999996  -3.6115999999999997  0.2594000000000003 
C  1.9820000000000002  -0.7985999999999995  -2.7367999999999997 
H  2.8915000000000006  -0.9856999999999996  -2.3942999999999994 
H  2.0567  -0.5625  -3.6946999999999997 
H  1.4420000000000002  0.9358000000000004  -2.4934999999999996 
H  -2.5732999999999997  -1.5231  0.2237 
22
Ligand ID: unq_CSD-PIYVOI-01-a  ===  Stoichiometry: C12H8N1  ===  Charge: -1  ===  Donors: N
Cu  0.0  0.0  0.0 
N  -2.2651999999999997  -0.28659999999999997  1.1295000000000002 
C  -2.9473  -1.3937999999999997  1.620800000000001 
C  -2.6904  -2.7396  1.3922000000000008 
C  -3.5422999999999996  -3.6898  1.9154 
C  -4.6545000000000005  -3.3293999999999997  2.7010000000000005 
C  -4.919499999999999  -1.9877999999999998  2.9547000000000008 
C  -4.0798000000000005  -1.0227  2.4231 
C  -4.1008  0.41890000000000027  2.4160000000000004 
C  -4.9474  1.3778000000000001  2.9475999999999996 
C  -4.7181  2.7148  2.6766000000000005 
C  -3.6188  3.0942000000000003  1.8983000000000008 
C  -2.751  2.1655  1.3643999999999998 
C  -2.9822  0.7994000000000003  1.6138000000000012 
H  -1.9407  -2.9932  0.8475000000000001 
H  -3.3755  -4.6239  1.7615999999999996 
H  -5.2447  -4.0054  3.052999999999999 
H  -5.6637  -1.7321  3.506500000000001 
H  -5.7141  1.1076000000000001  3.4640000000000004 
H  -5.2806  3.3954999999999997  3.052999999999999 
H  -3.4864  4.0258  1.6978000000000009 
H  -1.9757000000000002  2.4274  0.856300000000001 
2
Ligand ID: unq_CSD-OZODUD-01-a  ===  Stoichiometry: I1  ===  Charge: -1  ===  Donors: I
Cu  0.0  0.0  0.0 
I  2.4468  1.6701000000000006  -0.08729999999999993 
24
Ligand ID: unq_CSD-POLSUE-01-a  ===  Stoichiometry: C12H10P1  ===  Charge: -1  ===  Donors: P
Cu  0.0  0.0  0.0 
P  1.4201000000000001  -2.3792  1.2204999999999995 
C  2.0068  -2.4067  2.9369000000000005 
C  2.8381000000000003  -3.3963  3.4974999999999996 
C  3.1497  -3.3981  4.841600000000001 
C  2.644  -2.4308  5.685199999999999 
C  1.8054000000000001  -1.467  5.169099999999999 
C  1.4979  -1.4528  3.8227 
C  2.7648  -3.0553  0.20979999999999954 
C  4.1297  -3.1253  0.5382999999999996 
C  5.072  -3.6125  -0.35300000000000065 
C  4.7043  -4.02  -1.6194000000000002 
C  3.374  -3.9367  -1.9780000000000002 
C  2.4215  -3.483  -1.0833000000000004 
H  3.1854  -4.0625  2.9491000000000005 
H  3.708  -4.059  5.1834999999999996 
H  2.8655  -2.4308  6.5887 
H  1.4448  -0.8203  5.731799999999999 
H  0.9342  -0.7884  3.4951999999999996 
H  4.4078  -2.8383  1.3785999999999996 
H  5.9646  -3.6656  -0.09550000000000036 
H  5.339099999999999  -4.3424  -2.2177000000000002 
H  3.1142000000000003  -4.1918  -2.8337000000000003 
H  1.5303  -3.4601  -1.3453 
4
Ligand ID: unq_CSD-PANPID-01-a  ===  Stoichiometry: C1N1S1  ===  Charge: -1  ===  Donors: S
Cu  0.0  0.0  0.0 
S  2.0772  1.0875  1.6448 
N  3.9645  -0.9694  1.3898 
C  3.198  -0.1042  1.4889 
5
Ligand ID: unq_CSD-PABQAL-01-a  ===  Stoichiometry: Cl3Sn1  ===  Charge: -1  ===  Donors: Sn
Cu  0.0  0.0  0.0 
Cl  3.3943000000000003  -2.5521000000000003  -0.1795 
Sn  1.0945  -2.2537000000000003  -0.5906000000000002 
Cl  0.2788999999999999  -4.2506  0.3279000000000001 
Cl  1.0865  -2.9614000000000003  -2.8522 
13
Ligand ID: unq_CSD-PEPWUC-02-a  ===  Stoichiometry: C6Cl5O1  ===  Charge: -1  ===  Donors: Cl-O
Cu  0.0  0.0  0.0 
Cl  -1.2116  0.6977  2.1615 
Cl  -1.6859000000000002  2.3876  4.7269 
Cl  0.7466000000000002  3.6491999999999996  6.2294 
Cl  3.6004000000000005  3.3179  5.042 
Cl  4.0155  1.7504000000000002  2.3733000000000004 
O  1.5727  0.7762999999999998  1.1978 
C  0.11539999999999995  1.5027000000000001  2.9465000000000003 
C  -0.08730000000000016  2.1955999999999998  4.118 
C  0.9852000000000001  2.7790999999999997  4.7547 
C  2.2493  2.6369999999999996  4.2226 
C  2.4457000000000004  1.9461000000000002  3.0271999999999997 
C  1.3677  1.3633  2.3282999999999996 
35
Ligand ID: unq_CSD-PHCVHG-02-a  ===  Stoichiometry: C16H16N2  ===  Charge: 0  ===  Donors: N-N
Cu  0.0  0.0  0.0 
N  -1.5843  -0.5359999999999996  -2.1019000000000005 
N  -0.5884999999999998  -2.5077999999999996  -0.5244 
C  -1.8860999999999999  -1.8098  -2.4058 
C  -2.1246  0.4269999999999996  -2.8397000000000006 
C  -2.9674  0.22020000000000017  -3.9341 
C  -3.5016  1.445500000000001  -4.649 
C  -3.2385  -1.0854999999999997  -4.2819 
C  -4.1064  -1.4254999999999995  -5.502800000000001 
C  -2.7283  -2.1400999999999994  -3.5141999999999998 
C  -2.9686  -3.5192999999999994  -3.7479 
C  -2.4108  -4.493399999999999  -3.0294 
C  -1.5507  -4.214499999999999  -1.9173999999999998 
C  -0.9279000000000002  -5.203899999999999  -1.1216 
C  -1.0956000000000001  -6.6594999999999995  -1.4782000000000002 
C  -0.1581999999999999  -4.856999999999999  -0.04830000000000023 
C  0.5296000000000003  -5.7936  0.8738999999999999 
C  -0.04170000000000007  -3.4264  0.21689999999999987 
C  -1.3239999999999998  -2.8587999999999996  -1.5977000000000006 
H  -1.8953  1.4469000000000012  -2.5709 
H  -3.6367  -3.7954999999999997  -4.5507 
H  -2.6094999999999997  -5.521599999999999  -3.2929000000000004 
H  0.5286999999999997  -3.1141999999999994  1.0776999999999992 
H  -4.132  1.1373999999999995  -5.4694 
H  -2.6755  2.0311000000000003  -5.0285 
H  -4.0761  2.042200000000001  -3.9569 
H  -4.4155  -0.5110000000000001  -5.9841 
H  -4.9765  -1.9776999999999996  -5.1831 
H  -3.5346  -2.0234999999999994  -6.1984 
H  -1.7315  -6.7455  -2.3478000000000003 
H  -1.5477  -7.1826  -0.6490999999999998 
H  -0.13070000000000004  -7.0924  -1.6943000000000001 
H  0.35470000000000024  -6.8092999999999995  0.5524999999999993 
H  0.1419999999999999  -5.660399999999999  1.873499999999999 
H  1.5906000000000002  -5.5896  0.8669000000000002 
17
Ligand ID: unq_CSD-PIKZIT-02-a  ===  Stoichiometry: C6H7N2S1  ===  Charge: -1  ===  Donors: S-N
Cu  0.0  0.0  0.0 
S  1.8221  0.3309  -1.8483999999999998 
N  0.6858  1.9621000000000002  -3.6472000000000007 
N  -0.5227000000000002  1.4835  -1.637500000000001 
C  0.5682  1.3509  -2.4486000000000008 
C  -0.18890000000000007  3.3973999999999998  -5.3891 
H  0.7116  3.7720000000000002  -5.487 
H  -0.8516999999999999  4.1136  -5.478700000000001 
H  -0.3402999999999998  2.7236  -6.0846 
C  -0.32099999999999995  2.7609  -4.0387 
C  -1.43  2.9663999999999997  -3.2445000000000004 
H  -2.1199000000000003  3.5587  -3.5186 
C  -1.5151000000000001  2.2883  -2.0378000000000007 
C  -2.7133000000000003  2.4322999999999997  -1.1489000000000011 
H  -3.4711  1.9519  -1.5420999999999996 
H  -2.9401  3.3817999999999997  -1.0568000000000008 
H  -2.5122  2.0585  -0.26590000000000025 
17
Ligand ID: unq_CSD-PIKJIF-01-b  ===  Stoichiometry: C5H10O1  ===  Charge: 0  ===  Donors: O
Cu  0.0  0.0  0.0 
C  -2.9423000000000004  1.7981999999999996  0.6159999999999997 
H  -3.2004  0.9882999999999988  0.10799999999999965 
H  -3.2997  2.5862999999999996  0.1349999999999998 
C  -3.5474  1.7371999999999996  2.0035 
H  -3.2508  0.9077000000000002  2.4558 
H  -4.5343  1.7133000000000003  1.9322999999999997 
C  -3.1261  2.9445999999999994  2.8293999999999997 
H  -3.4465  2.8394999999999992  3.7606 
H  -3.5338000000000003  3.7652  2.4538 
C  -1.6031  3.0760000000000005  2.8202999999999996 
H  -1.339  3.9163999999999994  3.2723999999999993 
H  -1.2008999999999999  2.3200000000000003  3.3180999999999994 
C  -1.0845000000000002  3.080399999999999  1.3938999999999995 
H  -1.4295  3.8802000000000003  0.9224999999999994 
H  -0.09670000000000023  3.133799999999999  1.4044999999999996 
O  -1.4952999999999999  1.8867999999999991  0.6807999999999996 
19
Ligand ID: unq_CSD-PEVPAH10-02-a  ===  Stoichiometry: C5H10N1S2  ===  Charge: -1  ===  Donors: S-S
Cu  0.0  0.0  0.0 
S  2.0145  -1.4964000000000004  0.41660000000000075 
S  0.9829000000000001  0.4393999999999991  2.2424000000000017 
N  3.2676  -0.9026000000000005  2.7422000000000004 
C  2.2513  -0.6914000000000007  1.9161000000000001 
C  3.3533999999999997  -0.24900000000000055  4.054300000000001 
C  2.7427  -1.092900000000001  5.1419000000000015 
C  4.3726  -1.7824000000000009  2.337300000000001 
C  5.4576  -1.0242000000000004  1.6176000000000013 
H  2.8970000000000002  0.5947999999999993  4.015000000000001 
H  4.2731  -0.07970000000000077  4.271800000000001 
H  2.8065  -0.640600000000001  5.986600000000001 
H  1.8197999999999999  -1.2513000000000005  4.9314 
H  3.2077  -1.9308000000000005  5.1928 
H  4.0336  -2.4648000000000003  1.7518000000000011 
H  4.7524  -2.2098000000000004  3.1079000000000008 
H  6.1714  -1.607000000000001  1.3492000000000015 
H  5.0764000000000005  -0.6067000000000009  0.8424000000000014 
H  5.8011  -0.3487000000000009  2.207700000000001 
13
Ligand ID: unq_CSD-PAFWIC-02-a  ===  Stoichiometry: C3H6N1S2  ===  Charge: -1  ===  Donors: S-S
Cu  0.0  0.0  0.0 
S  0.40470000000000006  -0.5143  2.404399999999999 
S  -1.7263000000000002  1.0789  1.5732 
C  -1.1277000000000001  0.3772  2.9586000000000006 
N  -1.5467000000000002  0.3359000000000001  4.1592 
C  -0.9362000000000001  -0.2831999999999999  5.2675 
C  -2.4446000000000003  1.1945000000000001  4.359299999999999 
H  -0.22029999999999994  -0.6760999999999999  4.856499999999999 
H  -1.6054000000000002  -0.9518  5.7646999999999995 
H  -0.6453000000000002  0.46799999999999997  6.007900000000001 
H  -2.4015  1.8862  4.898100000000001 
H  -3.248  0.6678  5.044299999999998 
H  -2.9535  1.5139  3.5634999999999994 
18
Ligand ID: unq_CSD-PAKTUR-01-a  ===  Stoichiometry: C7H9N1  ===  Charge: 0  ===  Donors: N
Cu  0.0  0.0  0.0 
N  2.0376000000000003  -0.11780000000000013  1.4567999999999999 
C  1.9073999999999998  0.11819999999999986  2.7834999999999996 
H  1.0656  0.41069999999999984  3.1118 
C  2.952  -0.05110000000000037  3.6859999999999995 
C  4.1608  -0.4839000000000002  3.1766 
H  4.888999999999999  -0.6344000000000003  3.7684 
C  4.3285  -0.7028000000000003  1.8351000000000002 
C  3.2226  -0.5146000000000002  1.0082999999999998 
H  3.3202  -0.6788000000000003  0.07739999999999991 
C  2.7466  0.24309999999999965  5.142299999999999 
H  3.0347  1.1599  5.3355 
H  3.2725  -0.3864000000000003  5.68 
H  1.7964999999999998  0.14559999999999995  5.3652999999999995 
C  5.633299999999999  -1.1766  1.2582 
H  5.9395999999999995  -0.5420000000000003  0.5772999999999997 
H  5.508299999999999  -2.0592  0.8501999999999996 
H  6.3026  -1.2382000000000002  1.9715000000000003 
13
Ligand ID: unq_CSD-POGLIJ-01-a  ===  Stoichiometry: C6H5Te1  ===  Charge: -1  ===  Donors: Te
Cu  0.0  0.0  0.0 
Te  -2.3613999999999997  -1.7054999999999998  -0.9191000000000003 
C  -1.0691999999999995  -3.8527  -2.6824000000000003 
H  -0.8338000000000001  -4.2241  -1.8406000000000002 
C  -0.7096  -4.5145  -3.8411 
H  -0.23219999999999974  -5.3341  -3.7879000000000005 
C  -1.7687  -2.6542  -2.7272000000000003 
C  -1.0408  -3.9916  -5.076700000000001 
H  -0.7966999999999995  -4.4461  -5.8748000000000005 
C  -1.7386999999999997  -2.7896  -5.1332 
H  -1.9660000000000002  -2.4142  -5.9763 
C  -2.1032  -2.1366  -3.9670000000000005 
H  -2.5907  -1.3226999999999998  -4.019 
30
Ligand ID: unq_CSD-PHHGDT-02-a  ===  Stoichiometry: C13H11N4S1  ===  Charge: -1  ===  Donors: S-N
Cu  0.0  0.0  0.0 
S  0.6821999999999999  -2.0473  0.9853000000000001 
N  -1.5865  -0.3825999999999983  2.0888 
N  -1.2056  -1.2924999999999986  2.8999 
C  -0.06840000000000002  -2.0576999999999988  2.5450000000000004 
N  0.2912999999999999  -2.7401  3.5928 
N  1.4308  -3.4224999999999994  3.4407 
C  -2.7384000000000004  0.38260000000000005  2.4605 
C  -3.0042999999999997  1.4786000000000001  1.7508 
C  -4.1027000000000005  2.2645000000000017  2.0888 
C  -4.959099999999999  1.8302000000000014  3.1365000000000003 
C  -4.6932  0.6928000000000001  3.8463 
C  -3.5198  -0.030999999999998806  3.5252000000000003 
C  1.9767000000000001  -4.125699999999999  4.5222 
C  3.2036  -4.725399999999999  4.4208 
C  3.7310999999999996  -5.449199999999999  5.4685999999999995 
C  3.1758999999999995  -5.511199999999999  6.6514999999999995 
C  1.8866  -4.890799999999999  6.803599999999999 
C  1.2711999999999999  -4.166999999999999  5.671399999999999 
H  1.3758  -3.918899999999999  2.5788 
H  -2.364  1.7681000000000004  0.9227000000000001 
H  -4.303599999999999  3.1951  1.5649 
H  -5.843  2.4092000000000002  3.3731 
H  -5.3551  0.36190000000000033  4.6236 
H  -3.2406  -0.8995999999999995  4.0828 
H  3.7680999999999996  -4.621999999999999  3.5083 
H  4.6458  -6.007499999999999  5.2996 
H  3.6706000000000003  -5.9868999999999994  7.4626 
H  1.3763999999999998  -4.932199999999999  7.749899999999999 
H  0.29589999999999983  -3.7120999999999995  5.7726999999999995 
