36
Ligand ID: unq_CSD-PITSIW-03-a  ===  Stoichiometry: C19H12N3O1  ===  Charge: -1  ===  Donors: O-N-N
Cu  0.0  0.0  0.0 
O  1.0942999999999996  1.8138000000000005  0.06150000000000011 
N  0.13119999999999976  0.6112000000000002  -2.0399 
N  -0.3703000000000003  -0.12729999999999997  -2.9735 
N  -0.9780000000000006  -1.522499999999999  -1.1359 
C  1.2718999999999996  2.3559  -1.0754 
C  2.0309999999999997  3.6026000000000007  -1.1587999999999998 
C  2.500499999999999  4.196  0.021700000000000053 
H  2.3412999999999995  3.770100000000001  0.8560000000000003 
C  3.1868999999999996  5.386799999999999  -0.009799999999999809 
H  3.5047999999999995  5.7799  0.7947000000000002 
C  3.4125999999999994  6.011699999999999  -1.2334999999999998 
H  3.8644999999999996  6.846000000000002  -1.2585 
C  2.9871999999999996  5.431800000000001  -2.4061 
H  3.173499999999999  5.8591999999999995  -3.2333 
C  2.2807999999999993  4.2155000000000005  -2.4012 
C  1.7940999999999994  3.5906000000000002  -3.6355999999999997 
C  2.1172999999999993  4.141  -4.8871 
H  2.6562  4.922099999999999  -4.9274 
C  1.6679999999999993  3.571299999999999  -6.055 
H  1.9002  3.9555999999999987  -6.8919999999999995 
C  0.8784000000000001  2.440100000000001  -6.0081 
H  0.5560999999999998  2.0588999999999995  -6.815799999999999 
C  0.5501999999999994  1.8550000000000004  -4.795 
H  0.009999999999999787  1.074300000000001  -4.7797 
C  1.0114  2.4101999999999997  -3.5827 
C  0.7592999999999996  1.7826000000000004  -2.2868 
C  -0.9474  -1.306799999999999  -2.4602 
C  -1.4771  -2.2157  -3.3693 
H  -1.4424000000000001  -2.044599999999999  -4.303599999999999 
C  -2.0544000000000002  -3.3735  -2.8845 
H  -2.4190000000000005  -4.0115  -3.4855 
C  -2.0983000000000005  -3.597999999999999  -1.5220999999999998 
H  -2.4966000000000004  -4.385  -1.1686999999999999 
C  -1.5476  -2.6473999999999993  -0.6907999999999999 
H  -1.5743  -2.7982999999999993  0.24700000000000033 
30
Ligand ID: unq_CSD-PHHGDT-02-a  ===  Stoichiometry: C13H11N4S1  ===  Charge: -1  ===  Donors: S-N
Cu  0.0  0.0  0.0 
S  0.6821999999999999  -2.0473  0.9853000000000001 
N  -1.5865  -0.3825999999999983  2.0888 
N  -1.2056  -1.2924999999999986  2.8999 
C  -0.06840000000000002  -2.0576999999999988  2.5450000000000004 
N  0.2912999999999999  -2.7401  3.5928 
N  1.4308  -3.4224999999999994  3.4407 
C  -2.7384000000000004  0.38260000000000005  2.4605 
C  -3.0042999999999997  1.4786000000000001  1.7508 
C  -4.1027000000000005  2.2645000000000017  2.0888 
C  -4.959099999999999  1.8302000000000014  3.1365000000000003 
C  -4.6932  0.6928000000000001  3.8463 
C  -3.5198  -0.030999999999998806  3.5252000000000003 
C  1.9767000000000001  -4.125699999999999  4.5222 
C  3.2036  -4.725399999999999  4.4208 
C  3.7310999999999996  -5.449199999999999  5.4685999999999995 
C  3.1758999999999995  -5.511199999999999  6.6514999999999995 
C  1.8866  -4.890799999999999  6.803599999999999 
C  1.2711999999999999  -4.166999999999999  5.671399999999999 
H  1.3758  -3.918899999999999  2.5788 
H  -2.364  1.7681000000000004  0.9227000000000001 
H  -4.303599999999999  3.1951  1.5649 
H  -5.843  2.4092000000000002  3.3731 
H  -5.3551  0.36190000000000033  4.6236 
H  -3.2406  -0.8995999999999995  4.0828 
H  3.7680999999999996  -4.621999999999999  3.5083 
H  4.6458  -6.007499999999999  5.2996 
H  3.6706000000000003  -5.9868999999999994  7.4626 
H  1.3763999999999998  -4.932199999999999  7.749899999999999 
H  0.29589999999999983  -3.7120999999999995  5.7726999999999995 
23
Ligand ID: unq_CSD-PAHWEB-02-a  ===  Stoichiometry: C10H8N4  ===  Charge: 0  ===  Donors: N-N
Cu  0.0  0.0  0.0 
C  -1.6281999999999996  -2.2886  0.42459999999999987 
C  -2.2521999999999998  -3.3753  1.0031999999999996 
H  -2.8061999999999996  -3.9335000000000004  0.5068000000000001 
C  -2.0241  -3.6069000000000004  2.3537 
H  -2.4266999999999994  -4.3273  2.7818000000000005 
C  -1.2025999999999994  -2.7645000000000004  3.0433000000000003 
H  -1.0401999999999996  -2.9079  3.9486000000000008 
C  -0.6130999999999993  -1.6976000000000002  2.3932 
H  -0.04789999999999939  -1.1346000000000003  2.871500000000001 
C  -1.282  -0.9583000000000004  -2.8431999999999995 
C  -2.1524999999999994  -1.7124000000000001  -3.6064999999999996 
H  -2.6863999999999995  -2.3718000000000004  -3.2253999999999996 
C  -2.1971999999999996  -1.4450000000000003  -4.9613 
H  -2.7464999999999997  -1.9491000000000003  -5.5175 
C  -1.4305999999999992  -0.4365000000000001  -5.4864999999999995 
H  -1.4726  -0.2320000000000002  -6.3929 
C  -0.5976999999999997  0.2669999999999999  -4.6442 
H  -0.08000000000000007  0.9533999999999998  -4.9986999999999995 
N  -0.8281000000000001  -1.4495000000000002  1.1004000000000005 
N  -1.8189999999999995  -2.0836  -0.9589999999999996 
N  -1.1041999999999996  -1.1687000000000003  -1.4318999999999997 
N  -0.5061  -0.00020000000000042206  -3.3332999999999995 
28
Ligand ID: unq_CSD-PEVWIZ-03-a  ===  Stoichiometry: C12H11N4  ===  Charge: -1  ===  Donors: N-N-N
Cu  0.0  0.0  0.0 
N  2.0452000000000012  0.4275000000000002  -0.21950000000000003 
H  2.4922000000000004  -0.3246000000000002  -0.43130000000000024 
H  2.1622000000000003  1.0218000000000007  -0.8838999999999997 
N  0.36650000000000027  0.5184999999999995  1.8684999999999992 
N  -0.4070999999999998  0.4576999999999991  2.8842 
N  -1.8247  -0.5745000000000005  0.4620999999999995 
H  -2.308699999999999  -0.8934999999999995  -0.17210000000000036 
C  -2.361399999999999  -0.5131999999999994  1.6501000000000001 
C  -3.721499999999999  -0.9878  1.8369999999999997 
H  -4.194899999999999  -1.3542000000000005  1.1239000000000008 
C  -4.289599999999999  -0.8940999999999999  3.0565999999999995 
H  -5.171599999999999  -1.1725999999999992  3.1525999999999996 
C  -3.645199999999999  -0.4117999999999995  4.1578 
H  -4.075899999999999  -0.3833000000000002  4.981400000000001 
C  -2.367899999999999  0.026999999999999247  4.0394000000000005 
H  -1.9312999999999985  0.34580000000000055  4.7959 
C  -1.6677999999999997  0.015700000000000713  2.7948000000000004 
C  1.6771000000000011  1.0025999999999993  2.1052999999999997 
C  2.1194000000000006  1.5253999999999994  3.3263 
H  1.543000000000001  1.5654000000000003  4.055199999999999 
C  3.3963  1.9758999999999993  3.4421 
H  3.6849000000000007  2.3279999999999994  4.2524999999999995 
C  4.2773  1.9183000000000003  2.3736999999999995 
H  5.1532  2.2162000000000006  2.4764 
C  3.8573000000000004  1.4207  1.1580999999999992 
H  4.4435  1.388  0.4358000000000004 
C  2.5599000000000007  0.9697999999999993  1.0212000000000003 
33
Ligand ID: unq_CSD-POMLAF-02-a  ===  Stoichiometry: C16H10N3O3  ===  Charge: -1  ===  Donors: N-O
Cu  0.0  0.0  0.0 
N  -0.2466999999999988  1.8681  -1.0725 
N  -1.1277  2.7407000000000004  -0.6999 
N  3.7379999999999995  4.156  -4.3713 
C  -2.1932  2.4046000000000003  0.07930000000000004 
C  -2.6494999999999997  1.0659999999999998  0.3318000000000001 
C  -3.9265  0.927  0.9971000000000001 
H  -4.2939  0.07739999999999991  1.0952 
C  -4.6014  1.9913999999999996  1.4803 
H  -5.4011  1.8468999999999998  1.93 
C  -4.1304  3.3358  1.3263999999999998 
C  -4.8147  4.436  1.8769000000000002 
H  -5.5973  4.2924999999999995  2.3592000000000004 
C  -4.3538  5.7089  1.7171 
H  -4.8102  6.424600000000001  2.1007 
C  -3.1953999999999994  5.9327  0.9769000000000001 
H  -2.8907999999999996  6.8023  0.8468 
C  -2.4916  4.8708  0.4354 
H  -1.7104  5.0347  -0.04200000000000004 
C  -2.9407999999999994  3.5498000000000003  0.5971 
C  0.7215000000000007  2.4818  -1.9451 
C  0.8794000000000004  3.8582  -2.0244999999999997 
H  0.32559999999999967  4.4153  -1.5274 
C  1.8491999999999997  4.4056  -2.8314000000000004 
H  1.9515000000000011  5.3293  -2.8826 
C  2.6685  3.5736  -3.5633 
C  2.519300000000001  2.2154  -3.5332 
H  3.065900000000001  1.6694  -4.0503 
C  1.5457  1.6679  -2.7211999999999996 
H  1.4375  0.7439999999999998  -2.6916 
O  -2.0114  0.009599999999999831  -0.013299999999999979 
O  3.7462  5.3712  -4.503 
O  4.5692  3.4168000000000003  -4.885 
4
Ligand ID: unq_CSD-PAFWIF-01-b  ===  Stoichiometry: N3  ===  Charge: -1  ===  Donors: N
Cu  0.0  0.0  0.0 
N  1.4777  1.2372999999999994  -0.7157 
N  1.1927  2.199  -1.1711999999999998 
N  0.9537  3.220700000000001  -1.6050000000000004 
28
Ligand ID: unq_CSD-POWXOO-02-b  ===  Stoichiometry: C13H10N3O1  ===  Charge: -1  ===  Donors: N-N
Cu  0.0  0.0  0.0 
O  -1.2102000000000002  -1.3366000000000002  2.2469 
N  1.6374  -1.1991  -0.23399999999999999 
N  1.7024  -2.2315000000000005  0.4905999999999999 
N  -0.19540000000000002  -1.3834000000000002  1.409 
C  2.7633  -1.0207000000000002  -1.1122 
C  3.2452  -2.0824000000000003  -1.8424 
C  4.3505  -1.8484000000000003  -2.656 
C  4.9609000000000005  -0.6171000000000002  -2.7234 
C  4.4609000000000005  0.4269999999999996  -1.98 
C  3.3464  0.2456999999999998  -1.173 
C  0.6676  -2.3631  1.4248999999999998 
C  0.7478  -3.5213  2.3284000000000002 
C  1.7381  -4.4748  2.1055 
C  1.9052  -5.5452  2.9639999999999995 
C  1.0808  -5.6827000000000005  4.0482 
C  0.094  -4.7643  4.2924999999999995 
C  -0.09799999999999999  -3.688  3.4246 
H  2.7201999999999997  -3.1001000000000003  -1.8106 
H  4.696400000000001  -2.5883000000000003  -3.2092 
H  5.945  -0.3802000000000003  -3.2804 
H  4.8593  1.4302000000000001  -1.981 
H  3.0471999999999997  0.9359000000000002  -0.6319000000000001 
H  2.3836  -4.4718  1.3518999999999999 
H  2.7416  -6.215  2.8347999999999995 
H  1.3509  -6.384600000000001  4.6529 
H  -0.6184999999999999  -4.9076  5.1407 
H  -0.902  -2.8457000000000003  3.6090999999999998 
30
Ligand ID: unq_CSD-SIRSAP-02-a  ===  Stoichiometry: C15H10N3O1  ===  Charge: -1  ===  Donors: N-O
Cu  0.0  0.0  0.0 
C  -1.9714  -2.1191000000000004  -0.5481 
C  -2.5522  -3.345  -0.8226 
H  -2.0547999999999993  -4.0088  -1.2438 
C  -3.8753999999999995  -3.5894000000000004  -0.47400000000000003 
H  -4.2399  -4.424200000000001  -0.6643000000000001 
C  -4.6636  -2.653  0.136 
C  -4.1363  -1.3682000000000003  0.42069999999999996 
C  -4.849399999999999  -0.29310000000000014  1.009 
H  -5.7484  -0.38900000000000023  1.2268 
C  -4.2127  0.8707999999999996  1.2501000000000002 
H  -4.6819999999999995  1.5854  1.6146000000000003 
C  -2.8589999999999995  1.0128  0.9595999999999999 
H  -2.4395999999999995  1.8193000000000001  1.1585999999999999 
C  -2.7714999999999996  -1.1343000000000003  0.1099 
C  -7.777699999999999  -4.175800000000001  0.8549999999999999 
C  -8.5086  -3.2136000000000005  1.513 
H  -8.131  -2.3804000000000003  1.6814 
C  -9.7961  -3.4813  1.924 
H  -10.291  -2.8426  2.3844 
C  -10.3322  -4.7049  1.6379000000000001 
H  -11.2039  -4.8864  1.9022000000000001 
C  -9.6335  -5.6631  0.9843000000000001 
H  -10.024899999999999  -6.4882  0.8056 
C  -8.341  -5.4074  0.5877 
H  -7.85  -6.059900000000001  0.14180000000000004 
N  -2.1541999999999994  0.052999999999999936  0.4163 
N  -6.0081999999999995  -2.8353  0.5542999999999999 
N  -6.4567  -4.0185  0.38439999999999996 
O  -0.7413999999999996  -1.8182000000000003  -0.8618 
24
Ligand ID: unq_CSD-PIGRON-02-a  ===  Stoichiometry: C11H9N3  ===  Charge: 0  ===  Donors: N-N
Cu  0.0  0.0  0.0 
N  0.6827000000000001  -0.1457000000000006  1.9324 
N  -1.3330000000000002  1.1011999999999995  1.0894 
N  -1.0581  1.4043  2.3075000000000006 
C  0.04519999999999991  0.6980999999999993  2.7839000000000005 
C  0.4293  0.8750999999999998  4.0886 
H  -0.007400000000000073  1.4894999999999996  4.6312999999999995 
C  1.4838999999999998  0.12299999999999933  4.5817 
H  1.7626  0.2098999999999993  5.4642 
C  2.1096  -0.7633000000000001  3.7158 
H  2.8192  -1.2844000000000002  4.020200000000001 
C  1.6905000000000001  -0.8747000000000003  2.4182 
H  2.1213  -1.4793000000000003  1.8565999999999998 
C  -4.4481  1.8007999999999997  -0.7386999999999997 
H  -5.0602  1.3502  -1.2719 
C  -2.6469  3.1606999999999994  0.8704000000000005 
H  -2.0464  3.6063  1.4224999999999999 
C  -4.6372  3.1345  -0.44609999999999994 
H  -5.3799  3.5785  -0.7834999999999996 
C  -3.3584  1.1453999999999995  -0.2408999999999999 
H  -3.2239  0.24759999999999938  -0.4438 
C  -3.7268  3.8225999999999996  0.35130000000000017 
H  -3.8535000000000004  4.727  0.5307 
C  -2.4539  1.8138999999999994  0.5637000000000003 
14
Ligand ID: unq_CSD-POSNOC-01-b  ===  Stoichiometry: C5H4N4  ===  Charge: 0  ===  Donors: N
Cu  0.0  0.0  0.0 
N  1.1497000000000006  0.4986999999999999  1.5977000000000006 
C  0.8923000000000001  0.04459999999999997  2.8073000000000006 
H  0.15820000000000034  -0.5479000000000003  2.9131 
C  1.6225  0.3756999999999997  3.9365000000000006 
H  1.3927  0.03379999999999983  4.793100000000001 
C  2.7117  1.2346  3.7637 
C  3.0287  1.6919999999999997  2.5109000000000004 
H  3.7842  2.2517  2.3753 
C  2.2232  1.3195000000000001  1.4457000000000004 
H  2.4289  1.6493999999999995  0.5787000000000004 
N  3.2001000000000004  1.2861999999999996  5.9655000000000005 
N  3.5111000000000003  1.6998000000000002  4.827300000000001 
N  2.9877  1.0096000000000003  7.023200000000001 
