15
Ligand ID: unq_CSD-PEKWOS-01-a  ===  Stoichiometry: C7H5O1Se1  ===  Charge: -1  ===  Donors: Se
Cu  0.0  0.0  0.0 
Se  0.3897  1.3193000000000001  -2.1895999999999995 
O  2.5031  1.2668  -0.46629999999999994 
C  2.9633  2.7149  -2.2638999999999996 
C  4.2015  3.0594  -1.7405999999999997 
C  5.012  3.9471  -2.4089 
C  4.6193  4.4936  -3.5829 
C  3.4099  4.1589  -4.1319 
C  2.5868  3.2695999999999996  -3.4621999999999997 
C  2.106  1.758  -1.5073999999999999 
H  4.3884  2.6754000000000002  -1.0166999999999997 
H  5.7322  4.1342  -2.1418 
H  5.1443  5.0738  -4.0261 
H  3.1705  4.5793  -4.9615 
H  1.8897  3.1122  -3.7279 
14
Ligand ID: unq_CSD-POKQUC-02-a  ===  Stoichiometry: C6F4N1O2  ===  Charge: -1  ===  Donors: O-C
Cu  0.0  0.0  0.0 
F  2.2627000000000006  -3.7115  3.3813000000000004 
F  3.0403000000000002  -1.836  5.113700000000001 
F  2.574299999999999  0.7784  4.618200000000001 
F  1.2818000000000005  1.5345  2.3793000000000006 
O  0.6779000000000002  -2.7843999999999998  -0.15139999999999976 
O  0.49519999999999964  -4.1625  1.5097000000000005 
N  0.7896000000000001  -3.0753  1.0332 
C  1.0512999999999995  -0.7021999999999999  1.6489000000000003 
C  1.2934999999999999  -2.0516  1.9506000000000006 
C  1.9604  -2.4374000000000002  3.1041 
C  2.388399999999999  -1.4836999999999998  4.001399999999999 
C  2.1587999999999994  -0.14190000000000014  3.7475999999999994 
C  1.4939  0.21240000000000014  2.5774 
11
Ligand ID: unq_CSD-PITCUQ-01-b  ===  Stoichiometry: C2H1N4O3  ===  Charge: -1  ===  Donors: O
Cu  0.0  0.0  0.0 
O  1.5087000000000002  0.38659999999999994  -1.6977000000000002 
O  0.11630000000000029  1.6280999999999999  -6.3768 
O  2.1251  1.5690999999999997  -7.1406 
N  3.0631000000000004  0.7643999999999999  -3.3696 
N  3.0819  1.0473  -4.6952 
N  0.9571000000000001  0.9242  -3.9122000000000003 
N  1.3110000000000002  1.4571999999999998  -6.2402 
C  1.7997  0.6654999999999999  -2.8906 
C  1.7953000000000001  1.1343999999999999  -4.9299 
H  3.8155  0.43699999999999994  -2.9675000000000002 
12
Ligand ID: unq_CSD-SIMTOZ-01-a  ===  Stoichiometry: C5F5N1  ===  Charge: 0  ===  Donors: N
Cu  0.0  0.0  0.0 
C  -0.9918000000000005  -2.3396999999999997  -1.5892 
C  -0.9498000000000006  -3.3905999999999996  -2.4682 
C  0.2585999999999995  -3.7646999999999995  -3.0162 
C  1.4048999999999996  -3.0988999999999995  -2.6547 
C  1.2782999999999998  -2.042  -1.7530999999999999 
N  0.10679999999999978  -1.6418999999999997  -1.2389000000000001 
F  2.363999999999999  -1.3893999999999993  -1.3786999999999998 
F  2.5901999999999994  -3.4255999999999998  -3.1336 
F  0.30069999999999997  -4.755699999999999  -3.9033 
F  -2.0657000000000005  -4.0503  -2.7655000000000003 
F  -2.1104000000000003  -1.9654999999999996  -1.0573000000000001 
15
Ligand ID: unq_CSD-PEJWAD-01-b  ===  Stoichiometry: C4H7O3  ===  Charge: -1  ===  Donors: C
Cu  0.0  0.0  0.0 
C  1.487  0.07469999999999999  -1.2803000000000004 
C  2.5895  1.3063000000000002  -2.9986999999999995 
C  2.7672  2.6593000000000004  -3.4539999999999997 
C  3.5468  3.3446000000000002  -2.5645000000000007 
O  2.2535  -0.8317999999999999  -1.4908000000000001 
O  1.5835  1.2417000000000002  -1.8789999999999996 
O  5.002300000000001  3.1311000000000004  -2.8000000000000007 
H  3.4676  0.9617  -2.8118999999999996 
H  2.2750000000000004  0.7718000000000003  -3.8356000000000003 
H  3.2034000000000002  2.7219  -4.3566 
H  1.8615000000000004  3.0802  -3.5961 
H  3.3007999999999997  3.0587000000000004  -1.5999999999999996 
H  3.3158000000000003  4.349  -2.5198 
H  4.8185  2.8432999999999997  -3.7882 
9
Ligand ID: unq_CSD-PACBEB-01-d  ===  Stoichiometry: C3F5  ===  Charge: -1  ===  Donors: C
Cu  0.0  0.0  0.0 
F  0.7348000000000001  -1.7812999999999999  2.3275000000000006 
F  2.3976  1.279300000000001  1.7057000000000002 
F  4.0594  -0.3851999999999993  3.1983000000000006 
F  2.3772  -1.2985000000000007  4.154700000000001 
F  2.714  0.8071999999999999  4.3197 
C  1.0382  -0.5582999999999991  1.6518000000000006 
C  1.9919000000000002  0.051000000000000156  2.2970000000000006 
C  2.7835  -0.18599999999999994  3.5019 
11
Ligand ID: unq_CSD-PEXGUV-01-c  ===  Stoichiometry: C2H4N4  ===  Charge: 0  ===  Donors: N
Cu  0.0  0.0  0.0 
N  -1.2757999999999998  0.8832  -1.3101000000000003 
N  -1.2257999999999998  0.4937999999999998  -2.6185 
N  -2.0677999999999996  1.2062999999999997  -3.2837 
N  -2.6542  2.0507999999999997  -2.4162 
H  -3.2577  2.6216  -2.6422000000000003 
C  -2.1771  1.8544999999999998  -1.1894 
C  -2.6565  2.6079  -0.008500000000000618 
H  -3.5828999999999995  2.3551  0.1860999999999997 
H  -2.0913999999999997  2.3982  0.7646999999999995 
H  -2.6117  3.569  -0.19450000000000056 
15
Ligand ID: unq_CSD-SIRVUN-02-a  ===  Stoichiometry: C7F4N1S2  ===  Charge: -1  ===  Donors: S-N
Cu  0.0  0.0  0.0 
S  1.4726  -1.299  2.042 
S  3.1959999999999997  -3.4375  0.7645999999999997 
N  1.4901999999999997  -1.9554999999999998  -0.5343999999999998 
F  0.9809999999999999  -2.0037  -3.4408 
F  2.4361999999999995  -3.623  -4.9856 
F  4.288499999999999  -5.2854  -3.9354 
F  4.743499999999999  -5.2885  -1.2346000000000004 
C  1.9662999999999986  -2.186  0.6822999999999997 
C  3.0999  -3.6170999999999998  -0.9560000000000004 
C  2.1252999999999993  -2.7498  -1.4808000000000003 
C  1.9123999999999999  -2.7652  -2.8545000000000003 
C  2.656699999999999  -3.6064  -3.6601 
C  3.6121999999999996  -4.4507  -3.1225 
C  3.826699999999999  -4.4575  -1.7702999999999998 
15
Ligand ID: unq_CSD-POWGUE-01-a  ===  Stoichiometry: C7H5O2  ===  Charge: -1  ===  Donors: C
Cu  0.0  0.0  0.0 
O  -2.3044000000000002  0.46579999999999977  2.0517 
H  -3.0057  0.5419  2.4701 
O  1.189  2.1669  -1.3513 
C  0.5358  3.0962999999999994  -0.8841000000000001 
H  0.7471000000000001  3.9547999999999988  -1.1747999999999998 
C  -0.5290999999999999  2.9670999999999985  0.07509999999999994 
C  -1.1291  4.1495999999999995  0.5340000000000003 
H  -0.8634  4.967399999999998  0.18199999999999994 
C  -2.1107  4.107099999999999  1.5046000000000004 
H  -2.5111999999999997  4.896599999999999  1.7942000000000005 
C  -2.5132  2.8714999999999993  2.0589999999999997 
H  -3.1607000000000003  2.8377999999999997  2.7234000000000003 
C  -1.9116  1.6943000000000001  1.5897000000000001 
C  -0.9138  1.7367999999999988  0.6066000000000003 
15
Ligand ID: unq_CSD-PATTOT-01-a  ===  Stoichiometry: C4H7O1S2  ===  Charge: -1  ===  Donors: S
Cu  0.0  0.0  0.0 
S  -1.6500000000000004  1.5789  -0.4239999999999995 
S  -1.7640000000000002  4.4972  -0.22329999999999917 
C  -0.9478  3.0794000000000006  0.029500000000000526 
O  0.23130000000000006  2.9974  0.6031000000000004 
C  0.9182000000000001  4.1956  0.8942000000000005 
H  1.164  4.637  0.06710000000000083 
H  0.34830000000000005  4.781899999999999  1.4160000000000004 
C  2.141  3.8716  1.6751000000000005 
H  2.7404  4.6336  1.6427000000000005 
H  2.5709999999999997  3.1053000000000006  1.2621000000000002 
C  1.8797  3.5439999999999996  3.0737000000000005 
H  2.7126  3.3385000000000007  3.526 
H  1.2882  2.7763999999999998  3.1223 
H  1.4576  4.3046999999999995  3.5029000000000003 
14
Ligand ID: unq_CSD-POKQEM-01-a  ===  Stoichiometry: C6F4N1O2  ===  Charge: -1  ===  Donors: C
Cu  0.0  0.0  0.0 
F  -2.8813  -0.6247  -1.1893 
F  -5.153  -1.519  -0.0601 
F  -0.7215  -0.8068  2.9564 
F  -5.2106  -2.0803  2.5662 
O  -4.1623  -1.509  4.8718 
O  -2.2196  -2.4802  4.75 
N  -3.1606  -1.8783  4.3043 
C  -1.7298  -0.7008  0.8575 
C  -1.8135  -0.9946  2.1976 
C  -2.9574  -1.4628  2.7914 
C  -4.0889  -1.6314  2.0172 
C  -4.0399  -1.3575  0.6894 
C  -2.886  -0.8865  0.1326 
13
Ligand ID: unq_CSD-PIGHUJ-01-a  ===  Stoichiometry: C6H4Br1S1  ===  Charge: -1  ===  Donors: S
Cu  0.0  0.0  0.0 
Br  -3.1812000000000005  1.1810999999999998  -4.2572 
S  -1.4479000000000002  0.12089999999999979  -1.7812999999999999 
C  -0.5905000000000005  0.6024999999999996  -3.1984 
C  -1.3696000000000002  1.0742999999999996  -4.369400000000001 
C  -0.7828000000000004  1.4809999999999999  -5.4538 
C  0.6225999999999994  1.4207999999999998  -5.5325 
C  1.4094999999999995  1.0225  -4.548500000000001 
C  0.7890999999999995  0.5500999999999996  -3.3223000000000003 
H  -1.3345000000000002  1.8132000000000001  -6.2193000000000005 
H  1.0682999999999998  1.7524999999999995  -6.3945 
H  2.4552999999999994  0.9924999999999997  -4.6291 
H  1.3473999999999995  0.17889999999999961  -2.5528 
16
Ligand ID: unq_CSD-PAQLEY-01-c  ===  Stoichiometry: C8H4N1O2  ===  Charge: -1  ===  Donors: N
Cu  0.0  0.0  0.0 
N  1.3037  0.7045999999999992  -1.4164000000000003 
O  0.8269000000000002  2.9633000000000003  -1.249 
O  2.7962000000000002  3.142199999999999  -3.4415000000000004 
C  2.1866  -0.05059999999999931  -2.2156000000000002 
C  2.3666000000000005  -1.4166999999999987  -2.1884 
C  3.3298  -1.9568999999999992  -3.0503 
C  4.0641  -1.1762999999999995  -3.9102 
C  3.8835  0.19150000000000134  -3.9499000000000004 
C  2.9469  0.7498000000000005  -3.0859 
C  2.4907  2.119500000000002  -2.8809 
C  1.4252000000000002  2.0183  -1.7386000000000004 
H  1.8683  -1.9587000000000003  -1.6193 
H  3.4774  -2.8747999999999987  -3.0399000000000003 
H  4.6892  -1.5739  -4.4729 
H  4.3726  0.7226999999999997  -4.5336 
