66

Fe  0.0  0.0  0.0 
S  1.48986  -1.3881  0.0 
N  1.48986  1.3881  0.0 
N  2.57661  0.96147  0.76036 
N  4.34177  4.82934  -0.25656 
H  5.36839  5.02944  -0.19426 
N  3.99423  -0.96513  0.9493 
H  4.21315  -1.9014  0.53232 
C  1.17698  2.81137  0.07556 
H  0.34144  3.0158  -0.63568 
C  2.3372  3.77731  -0.1852 
C  2.12974  5.11439  -0.4847 
C  3.36278  5.72377  -0.49817 
C  3.73108  3.63249  -0.07949 
H  4.27742  2.73129  0.15171 
C  0.96145  5.81458  -0.73269 
H  0.0026  5.31838  -0.74616 
C  1.05818  7.19249  -0.97387 
H  0.15454  7.75771  -1.16805 
C  2.31405  7.83627  -0.95441 
H  2.36787  8.90208  -1.12488 
C  3.49313  7.09591  -0.7186 
H  4.45896  7.58634  -0.70143 
C  2.96461  -0.30063  0.14033 
C  5.22011  -0.16174  0.97868 
H  5.45195  0.28363  -0.01584 
H  6.08183  -0.79127  1.28913 
H  5.10369  0.65077  1.72535 
C  -3.56202  -0.02516  -0.07201 
C  -4.17652  -1.20717  0.00181 
H  -3.58229  -2.10272  0.08567 
C  -5.66225  -1.28  -0.04797 
C  -6.36712  0.05108  0.11431 
C  -5.61011  1.31779  -0.13437 
C  -4.27606  1.23351  -0.22695 
H  -3.6453  2.0988  -0.37284 
C  -6.39052  -2.63214  0.1359 
C  -5.45785  -3.84212  -0.14033 
H  -5.01251  -3.77411  -1.15754 
H  -6.0185  -4.79522  -0.06184 
H  -4.63506  -3.90105  0.60522 
C  -6.91496  -2.75049  1.5741 
H  -6.06581  -2.75634  2.29412 
H  -7.48839  -3.6915  1.6948 
H  -7.5814  -1.90666  1.84087 
C  -7.52919  -2.68078  -0.89766 
H  -8.23136  -1.83311  -0.79232 
H  -8.11144  -3.61615  -0.79571 
H  -7.10192  -2.63087  -1.92504 
C  -6.3305  2.65933  -0.30796 
C  -6.95939  3.06854  1.03347 
H  -6.15753  3.19589  1.79638 
H  -7.66947  2.30818  1.41236 
H  -7.50105  4.02962  0.92888 
C  -7.40096  2.49146  -1.40707 
H  -8.15767  1.7249  -1.15191 
H  -6.91904  2.1815  -2.36124 
H  -7.94771  3.4404  -1.56944 
C  -5.38897  3.80508  -0.76779 
H  -5.95934  4.73776  -0.94732 
H  -4.88195  3.52918  -1.72134 
H  -4.61574  4.03075  -0.00191 
N  -2.17505  -0.0049  -0.03492 
O  -7.54968  0.08458  0.41187 
O  -1.4228  1.08615  0.0 
O  -1.4228  -1.08615  0.0 
