66

Ni  0.0  0.0  0.0 
C  2.8421262813342887  0.7294581554360184  0.4817867348271724 
H  3.257519119156756  0.3204487553093156  -0.31830806011515544 
H  3.4726819656799517  1.4009563643084868  0.8443888506792827 
P  1.2864440631057361  1.557293059285887  2.1053737047925176e-15 
N  2.604154620544173  -0.3095510569610169  1.4928056244701486 
C  2.187166048120188  -1.5289436489184878  1.0185588773573624 
N  1.2864440631057386  -1.5572930592858873  1.1102230246251565e-15 
C  1.051763565343032  -2.7437506396254943  -0.6080261211695921 
H  0.4913468897341401  -2.7532851809319387  -1.3745164421923473 
C  1.5828793198617017  -3.933951404310041  -0.17313228924461116 
H  1.4068701258580563  -4.743463732437981  -0.6382796682924525 
C  2.379778785951024  -3.9235594039710575  0.9571216013815365 
H  2.7045295458229726  -4.7401391366150385  1.3182444810190364 
C  2.699615888232536  -2.7301998471948945  1.5550020127140853 
H  3.260020522265817  -2.712233556371748  2.3221290872904197 
C  3.492310799166054  -0.2688295693631215  2.6550942559311874 
H  3.0888391485949973  -0.7738796884207784  3.3923931060763293 
H  3.6267073546522655  0.6623344985387507  2.9314274868714536 
H  4.356149776835953  -0.6674864928613136  2.4204466520541494 
C  1.7639865416636367  2.513550782339553  -1.4959244828108929 
H  2.7126417006754147  2.8014783835873316  -1.3654189054585608 
C  1.740681246605381  1.6028659619433658  -2.740981277146888 
H  2.3071840336144476  0.807098875838026  -2.5776365588901253 
H  0.8157785284236552  1.2913064727984724  -2.9043972697052487 
C  2.249321507587923  2.345369711064441  -3.9652395372574123 
H  2.176060061856969  1.758856729738476  -4.759662487143376 
H  3.205426051875233  2.57133219635373  -3.8389364666888266 
C  1.455240570761879  3.6252521764200494  -4.206055381098191 
H  1.838954709824593  4.111402432780382  -4.977714468859216 
H  0.5162678782488828  3.396711961797117  -4.423082621358564 
C  1.489342927646774  4.518542611836175  -2.973365834923233 
H  0.9467425993287368  5.330064227799401  -3.1392239686809544 
H  2.4215299335999827  4.803859230535899  -2.7981697361488633 
C  0.9447134749793459  3.7844144570980727  -1.752396571711423 
H  -0.003927571495137228  3.5437203868555174  -1.903555559184461 
H  0.9914877255002035  4.375565438289851  -0.9598195490037094 
C  0.8811041986117115  2.771124867453587  1.3108577137631463 
H  0.1482927685601816  3.3504195060707276  0.9550191131936037 
C  2.066798025688727  3.692977367495103  1.6314813663508405 
H  2.80708203346335  3.161165419794153  2.0171082976142767 
H  2.393211010676194  4.117243337256104  0.7984371597601307 
C  1.6392246313890912  4.77126440215897  2.623505919153293 
H  2.413313406382124  5.350205969787499  2.8368081687936106 
H  0.9372905859374941  5.3369235404613935  2.2149042609445733 
C  1.1050351575592912  4.1450485725917385  3.9050418144168297 
H  0.7874649300204108  4.85959386537707  4.512213968866663 
H  1.8359425231292292  3.658772623768557  4.3621704336825164 
C  -0.040794556012786254  3.1791086995341993  3.61716821518805 
H  -0.8171074304352832  3.6888249795027197  3.2738202649379433 
H  -0.31507013932080974  2.7386181727771093  4.460482041849449 
C  0.3490373196575449  2.1122595184546613  2.597903007530425 
H  -0.44008634361527443  1.5542560618679628  2.382722556512726 
H  1.0466064848963732  1.5241599154037302  2.9835755715006247 
Br  -1.5839191898578664  1.5839191898578664  0.0 
C  -1.2937473829822488  -1.2398794889499034  -0.459800567 
C  -1.601562203225019  -1.4938654694550033  -1.7919791134 
H  -1.1309417375171225  -1.0428217585005106  -2.480879663 
C  -2.60218398542082  -2.411889969420291  -2.121542410022 
H  -2.8231586547736818  -2.5626138747145775  -3.032700502 
C  -3.2683208079706407  -3.09759503004543  -1.14306436557 
H  -3.9596020908062854  -3.707191723557817  -1.368328076 
C  -2.9347449854640226  -2.896087320001541  0.14198826503 
H  -3.3668350933519986  -3.405606940434718  0.81710224434 
C  -1.9675509241539992  -1.9516175659140573  0.5112421903 
H  -1.7755298364628027  -1.8022912010877177  1.4301324877 
