66

Ni  0.0  0.0  0.0 
P  1.3513832598489603  -1.501287209364017  -3.104336047856061e-16 
N  1.3513832598489592  1.501287209364018  -2.948769600173663e-16 
C  1.0670319626740088  2.7108104662558397  0.8115965258875482 
H  0.14127916748579428  3.017117085756585  0.6427096790010725 
H  1.6867424646897446  3.43939159861849  0.5554069139658876 
C  1.2365893234763545  2.388458425965687  2.2755976609685766 
C  2.5088391642221013  2.2012351496686295  2.8071915449956553 
H  3.268525666005722  2.254746792543433  2.2407568946743517 
C  2.6752498351556717  1.9371713499324406  4.148354699972866 
H  3.551069833245057  1.8235948577486207  4.497244612939583 
C  1.577582916222185  1.8352137504502983  5.005102004017031 
C  0.3159049186708598  2.001674603804179  4.468648292318017 
H  -0.44427319864840054  1.927506110723385  5.033169084302788 
C  0.1384123031987332  2.274346350054128  3.117497456826314 
H  -0.738764702317461  2.3837908513961508  2.7690260919774174 
C  1.7806988199033105  1.5504793423145722  6.467729111825264 
H  0.9544197039984288  1.7463820304648239  6.956469134122365 
H  2.5055207377560063  2.113342047551347  6.812903926164131 
H  2.0166741260245713  0.6066487540287636  6.587956377938449 
C  2.5332399687436373  1.427723873640413  -0.4802666397720173 
H  3.085341340069431  2.190064965245953  -0.34985852717984667 
C  3.138824229631208  0.30690453640458665  -1.2095564972659285 
C  4.256097722683763  0.6110315529755337  -1.9873440707806163 
H  4.575370970607931  1.5052597004122341  -2.011549927342162 
C  4.9108482145957115  -0.3647627892813273  -2.725830262229413 
H  5.65461637120449  -0.13431182837121453  -3.2702117037117864 
C  4.474159169687383  -1.6700075804030154  -2.6628740607339463 
H  4.911514118275851  -2.3425888284826226  -3.170905598806962 
C  3.389497231731954  -2.0044635405072175  -1.8533453206007493 
H  3.109011319578671  -2.910599359499699  -1.7998183122556304 
C  2.7122238419117473  -1.0345388679211802  -1.1236207527326323 
C  2.115260371941563  -1.6093946580838092  1.6476431188678082 
C  3.486414384715993  -1.5242652310142595  1.8433438953082268 
H  4.066739339737084  -1.456789211523684  1.0938376422499314 
C  4.016173228734284  -1.536895012898588  3.126136768610067 
H  4.955622234302954  -1.4739973778484632  3.253390308604716 
C  3.181383766362602  -1.638982624145824  4.2148035326582365 
H  3.5448422240394954  -1.649891536110069  5.0923616590424015 
C  1.8154728706424335  -1.725546453631224  4.034126145091969 
H  1.2416243947940109  -1.8028277588180908  4.787009022195108 
C  1.281999205544037  -1.7013162698441981  2.7584333267221988 
H  0.34023734149074536  -1.7486612778857396  2.639648935372018 
C  0.9705129519551292  -3.2049394446238457  -0.5125558114576979 
C  1.3654430012819054  -4.315546711907717  0.21482519873917807 
H  1.8281354518959247  -4.205572868148706  1.0375454366291184 
C  1.0845720638283773  -5.598657477113019  -0.2637957062662821 
H  1.3493301202271772  -6.360752922850335  0.23616412527859504 
C  0.41780083890549  -5.754689173472595  -1.4686871467479652 
H  0.2324855932383083  -6.627172987249229  -1.7954818138113837 
C  0.02376848404489862  -4.654218490917535  -2.1945536290708465 
H  -0.43066996615274267  -4.76831850717796  -3.021403779504023 
C  0.2886284067376732  -3.378586950826498  -1.7227208458985337 
H  0.007278595193700221  -2.6207808475679806  -2.221363406665578 
Br  -1.5839191898578664  1.5839191898578664  0.0 
C  -1.29374738  -1.23987949  -0.45980057 
C  -1.6015622  -1.49386547  -1.79197911 
H  -1.13094174  -1.04282176  -2.48087966 
C  -2.60218399  -2.41188997  -2.12154241 
H  -2.82315865  -2.56261387  -3.0327005 
C  -3.26832081  -3.09759503  -1.14306437 
H  -3.95960209  -3.70719172  -1.36832808 
C  -2.93474499  -2.89608732  0.14198827 
H  -3.36683509  -3.40560694  0.81710224 
C  -1.96755092  -1.95161757  0.51124219 
H  -1.77552984  -1.8022912  1.43013249 
