106

Pd  0.0  0.0  0.0 
N  0.3095452473752466  1.9600563438797742  -2.369632268184319e-15 
N  1.8407844730217662  -0.017106030292221797  5.790506962810584e-15 
N  0.2496702796029875  -1.9429503135875525  -3.424344141578218e-15 
N  8.856504349463648  -0.051646804452377015  0.541268251626472 
O  10.111229521265258  -0.0004952491780940704  0.6713335876712787 
C  -0.588244260463014  2.9499712010466386  -0.04586725603128838 
H  -1.4939058579053441  2.7377706864879467  -0.043421333049047044 
C  -0.21106377045094504  4.27942191576391  -0.09596251620621533 
H  -0.8570670086750098  4.947638324792997  -0.09977655714621471 
C  1.1076369856492685  4.606078544004088  -0.13978731612003392 
H  1.3627483433619598  5.499658550844702  -0.18684235347752154 
C  2.0691174267710926  3.613093683726977  -0.11544725448029965 
H  2.9755375332981773  3.819044812146309  -0.15000392078700356 
C  1.63332647951826  2.2959631553323216  -0.03792286178163667 
C  2.5342720577301767  1.139253650668149  -0.006348078805958097 
C  3.9161376690055816  1.1580939083240271  0.03099542218030096 
H  4.374778678943837  1.966684111026578  0.023099341110179326 
C  4.610931749360487  -0.041372919182607104  0.07904628705235486 
C  3.871263561691399  -1.2277875675516543  0.061723057397409825 
H  4.311083915681649  -2.047227519928299  0.07651699753706623 
C  2.492496770424479  -1.1883411431142255  0.02365844261379171 
C  1.555498545255477  -2.3222680102380466  -0.007104620382216138 
C  1.9257831018375122  -3.637864860698941  -0.03422959437710215 
H  2.8259951410013704  -3.8707217622095538  -0.03676887839521458 
C  0.9535728755748056  -4.618755676426869  -0.05824195725160142 
H  1.1856670811173122  -5.5197656904243715  -0.0761532506111221 
C  -0.3554313834178484  -4.234105233940785  -0.05574655460738154 
H  -1.0268598559860065  -4.878304314932143  -0.0763438911993003 
C  -0.685532680413641  -2.917037986647155  -0.022859325656398352 
H  -1.5851600547527667  -2.678768564721788  -0.01441302972001439 
C  8.233172086655234  1.018122687526005  0.011171341453947067 
H  8.741297699319711  1.7569058996429305  -0.23762151866979178 
C  6.848901472186728  1.0555109451530318  -0.1772150012320165 
H  6.442144941005026  1.8090517234063108  -0.5389103286147086 
C  6.082344696077014  -0.060514998436148826  0.1882323714992242 
C  6.7607833091037515  -1.1329147321343922  0.7210425811595631 
H  6.288733614505929  -1.8936559683985803  0.9743734266508665 
C  8.12396842351205  -1.096420334940714  0.8838638108229778 
H  8.54801594952148  -1.8381154500169954  1.2508233344182416 
N  0.4562049063131179  -6.318824405565016e-16  -1.8630801099136456 
N  -0.29786132885533  0.1881963270907171  -3.9644172497958765 
N  -1.8162049063131172  -4.391518864959395e-16  -0.6169198900863552 
C  1.5603325795691494  0.05775166124180958  -2.726454516978115 
C  2.926900591256232  0.06086068355474476  -2.467394787544987 
C  3.77812924347035  0.15280603447225125  -3.552401969131606 
C  3.289628125232719  0.2253511514237041  -4.863379376826775 
C  1.9352963088219126  0.2743367983199081  -5.138031443004318 
C  1.083457354181763  0.18481516970579182  -4.0382647525795035 
C  -0.6078435434420261  0.0797131585192387  -2.6318464716468792 
C  -1.9250516213216489  0.04588810505689555  -1.9822254472588774 
C  -3.1683282469912983  0.07812218415289408  -2.6060166111978686 
C  -4.301585894817768  0.19378565816382154  -1.8341349658514972 
C  -4.203715084251532  0.3111162588554642  -0.4502702164700808 
C  -2.9449798772301854  0.16071446299962217  0.09926306587807021 
C  -1.1799949895939013  0.6575762097643908  -5.061721027394999 
C  -1.659927830447845  2.073246115981193  -4.82508340379731 
C  -0.8384580380582212  3.03287415838624  -4.24034422226315 
C  -1.2612376488950314  4.298636917411768  -4.037458124846922 
C  -2.562702881857821  4.672798850255724  -4.395993904650904 
C  -3.393468801317155  3.742452121678323  -4.973379401256272 
C  -2.9496966572014527  2.4611654285247613  -5.191482299115563 
C  -5.397598097911568  0.613338352563932  0.41020339484444235 
H  3.2744108529354534  -8.699556575074358e-05  -1.5484802929169441 
H  4.748607640398806  0.14173256424801942  -3.4096713159683834 
H  3.9318037162171855  0.24573393777173566  -5.602618128763181 
H  1.5920255131953451  0.37659790698374435  -6.049718388465732 
H  -3.2413417456920905  0.019365416279704183  -3.584083726091595 
H  -5.190440923059935  0.1925077234917552  -2.2527019445438072 
H  -2.8664215494015846  0.17159198485573768  1.0779955158597057 
H  -0.6744693793129029  0.6227551427582988  -5.905114939302481 
H  -1.9515915775607318  0.05648244674261064  -5.12488457300687 
H  0.07107852613448862  2.7816556458196233  -3.970582109763341 
H  -0.6521716891630239  4.954831185022867  -3.643641378313606 
H  -2.8718681277970792  5.597115365424084  -4.236576055931444 
H  -4.300347099007593  3.9897148050134357  -5.226776458476795 
H  -3.557559462974687  1.8067421398721606  -5.597079794949326 
H  -5.699431013293623  1.5130397655696872  0.22487908821568414 
H  -6.109327279102962  -0.023997453712517314  0.19127435913058832 
H  -5.151705059728962  0.5278793918971415  1.3423419949544884 
Si  -1.4893387556517679  0.2643957814161776  4.193614705173133 
Si  1.4745809979568087  -0.18803085147818688  4.16850522455829 
N  1.5707824742334703e-16  -4.010364710994377e-17  1.9099999999999997 
N  -0.006619241009071741  0.026432242786447846  3.2037280827862338 
C  -2.6610770291887182  1.4461897666258796  3.402997057475578 
C  -2.3589600637127752  -1.358271950271136  4.424960989143742 
C  -0.6319542088257821  0.8376073251622601  5.751135018035932 
C  0.7115431333266165  0.1041838545163114  5.832029667643257 
C  2.2191279437941063  -1.886321197675434  3.893579715633444 
C  2.761771086052841  1.0876526089173222  3.6761790765825113 
H  -3.5508383784901008  1.6004787611069962  3.988220653609045 
H  -2.18108488584697  2.442921663881492  3.243973419850784 
H  -2.9625186071191836  1.0884226512786226  2.3822190325010526 
H  -3.2725742042247576  -1.2397844746833666  5.0270025993214675 
H  -2.64025115856274  -1.7922978653038921  3.4544192409236625 
H  -1.6970917845742004  -2.0844397440168834  4.9416525474225415 
H  -1.2837652967233726  0.691047329471015  6.621238094318704 
H  -0.45465918624410673  1.954436396615617  5.685149715699764 
H  1.3938322021011986  0.6416838623871981  6.485278937194712 
H  0.5050515669212674  -0.8865336730352259  6.31138576034015 
H  3.1163357339512876  -2.0408441296861253  4.482180985394295 
H  1.478836571735818  -2.679039912454798  4.1878421897863864 
H  2.44297662737762  -2.0452239365939757  2.8278490383879618 
H  3.6707833145750017  0.9557052227615623  4.26415587517565 
H  3.0209260200544397  0.9692783972605556  2.6065796580162592 
H  2.394967602326549  2.0903518710115625  3.8300117263091593 
