55

Fe  0.0  0.0  0.0 
O  1.24004  1.29089  0.0 
O  1.24004  -1.29089  0.0 
C  2.41062  0.69107  0.49633 
H  2.32946  0.56643  1.59642 
H  3.34602  1.22597  0.22855 
C  1.18929  2.71176  0.2083 
H  0.2509  3.06346  -0.26256 
C  2.47645  -0.66596  -0.15404 
H  2.68282  -0.56235  -1.24065 
H  3.27928  -1.26981  0.32006 
C  2.26177  3.51244  -0.53069 
H  3.27176  3.37255  -0.09149 
H  2.01962  4.59663  -0.47326 
H  2.27636  3.21709  -1.60377 
C  1.08333  3.07596  1.69692 
H  0.25092  2.50744  2.16255 
H  0.87328  4.16106  1.80824 
H  2.02543  2.83982  2.23185 
O  -1.2417  1.34487  0.0 
C  -2.4771  1.23904  0.64398 
C  -3.20663  -0.03495  0.40022 
H  -4.2625  0.03137  0.51075 
C  -2.6759  -1.23807  0.13483 
C  -3.29015  2.55849  0.34403 
C  -4.8304  2.42097  0.47867 
H  -5.32652  3.39731  0.3689 
H  -5.10897  1.97989  1.45792 
H  -5.2368  1.77271  -0.34196 
C  -3.02413  3.14258  -1.07507 
H  -3.56055  4.10736  -1.20471 
H  -3.36613  2.45113  -1.87585 
H  -1.9448  3.35833  -1.24223 
C  -2.79997  3.55427  1.39407 
H  -3.32743  4.52495  1.31311 
H  -1.71009  3.73522  1.27265 
H  -2.97093  3.13269  2.40793 
C  -3.64222  -2.48506  -0.05397 
C  -3.82431  -2.79063  -1.57531 
H  -4.51331  -3.64748  -1.7248 
H  -2.93656  -3.01236  -2.18433 
H  -4.2606  -1.89845  -2.07373 
C  -5.08892  -2.23152  0.4648 
H  -5.71568  -3.14413  0.36061 
H  -5.61697  -1.44772  -0.11546 
H  -5.0673  -1.9532  1.54146 
C  -3.18925  -3.72834  0.79075 
H  -3.90402  -4.56562  0.65188 
H  -3.15571  -3.46378  1.86729 
H  -2.21429  -4.19539  0.58822 
N  -1.2417  -1.34487  0.0 
C  -0.71138  -2.57277  -0.62684 
H  -1.38412  -3.31728  -1.00418 
H  -0.06872  -3.13207  0.0886 
H  -0.15605  -2.29613  -1.55104 
