49

Fe  0.0  0.0  0.0 
N  1.3302812775875632  1.314249490203439  1.6895157592397224e-16 
N  3.429585537038007  1.578622052331057  -0.6721092356510495 
H  4.232742636262519  1.3764562824521045  -0.9705650706660661 
N  1.330281277587563  -1.3142494902034394  1.1102230246251565e-16 
N  0.021027392725811556  -3.246828801766905  1.9329519961684047 
N  -2.1310768986012785  -4.241372759929423  4.66442007112998 
N  -0.21745369594395147  -3.0946180446076736  4.690312949281353 
H  0.5178755254490434  -2.7149044752132117  4.391797821719496 
C  1.6404851281562345  2.669195730071753  0.040712137736635984 
C  0.896310133211626  3.7906775461094733  0.4272491776124373 
H  -0.008073430139940996  3.712609191687575  0.7076445990754089 
C  1.5319265868688356  5.0140362287528415  0.3841878557409476 
H  1.044581555305673  5.786904609202255  0.6439477192922776 
C  2.8481755693134465  5.169045670657564  -0.019126586269200774 
H  3.2403162989164223  6.033415479029454  -0.015424889145332243 
C  3.5955980982734155  4.085130987320316  -0.42548038832968926 
H  4.494644691460948  4.175051745046238  -0.7208192794495526 
C  2.9583510222649596  2.8572621564560916  -0.37635444497176684 
C  2.4280755005267736  0.7041529704962999  -0.41543531472731027 
C  2.4620156903012953  -0.7214397415160728  -0.48334240548575297 
C  3.551240605689943  -1.4418006943313948  -0.9532118249584807 
H  4.315120036314744  -0.9870326236909543  -1.2889408933965703 
C  3.5173069100171808  -2.810348700936734  -0.9305999273260228 
H  4.249500673129491  -3.323223927462909  -1.2525131381067496 
C  2.3859735005858873  -3.421061427845044  -0.42655238800375594 
H  2.33918296359072  -4.369933939720215  -0.4012108834034364 
C  1.3296943175038958  -2.6804834308550376  0.03625375690136286 
C  0.18234772005698296  -3.3917058638615054  0.6236032577229754 
C  -0.6065416262575922  -4.220561551552414  -0.147652230590609 
H  -0.4553367394029535  -4.293845175185469  -1.0823918428348454 
C  -1.606211080187161  -4.933973549798551  0.4488042503353913 
H  -2.159740527140646  -5.50953220181896  -0.0664451062288054 
C  -1.8019813012985617  -4.808861460179593  1.8051076550193192 
H  -2.49562986419864  -5.286350441288396  2.2452497276576775 
C  -0.963610253486094  -3.971906446539277  2.5042061468873795 
C  -1.1223963204131788  -3.78784249460078  3.9457479834452656 
C  -1.8475779690559127  -3.81536229222642  5.9557916862563465 
C  -2.55261867683926  -3.998762816097036  7.1230436462942786 
H  -3.376005756068296  -4.472941314658626  7.1170863599484795 
C  -2.0584715055654064  -3.493371853459353  8.276062938416597 
H  -2.526364680652839  -3.6343314325810643  9.091247257304286 
C  -0.8541604052530762  -2.7590479962360117  8.277828264782753 
H  -0.5346146578141338  -2.397910408937781  9.095650530519055 
C  -0.13474783773347188  -2.5545118126546207  7.135722150053977 
H  0.6812448013874599  -2.068729904608248  7.13549694953634 
C  -0.6575847356411795  -3.0927983901068914  5.98261279326206 
Cl  -1.5202795795510768  1.5202795795510768  0.0 
Cl  -1.5202795795510768  -1.5202795795510768  0.0 
