62

Pd  0.0  0.0  0.0 
P  1.6504477687888217  -1.3297075477337112  -2.3966773042738095e-16 
N  1.6504477687888217  1.3297075477337112  1.7022469817413038e-16 
N  3.9402975119692916  1.7296760753294547  0.2935729050667323 
C  2.879090012421603  -0.4190897039351088  1.0468279274630805 
H  2.4964475186815407  -0.35257693941727464  1.9472308562347456 
C  4.248737533137957  -1.0720622703312481  1.1917204963878383 
H  4.13787806492676  -2.0321540116888466  1.2807993742706871 
H  4.770811215312215  -0.9029682538437762  0.39236017464978595 
C  4.999406588108996  -0.5367658878950233  2.4074832087867954 
H  5.922362294169063  -0.8330737946009147  2.3705454357795115 
H  4.60142212575704  -0.8972589119565795  3.2156608670584057 
C  4.960540876669191  0.9843621213783796  2.461171437275076 
H  4.1072554540098665  1.2628078033864556  2.830857857972625 
H  5.656433120990596  1.2941400802250795  3.0624242297892867 
C  5.147519719811898  1.6334393462696701  1.1353025605212366 
H  5.4899799222305585  2.530462031470572  1.2791591974704108 
H  5.8218951327031965  1.139621479236327  0.6451150181598101 
C  2.823488330380905  0.9725619326626407  0.43461714243143706 
C  1.5345559698043227  2.6223333532572353  -0.711227332027395 
H  1.4465861108305698  3.3429248634980153  -0.0689334746061514 
H  0.7454412114333878  2.6180768609107448  -1.2748072379804938 
C  2.765834037248305  2.834145116287405  -1.5568130152514685 
H  2.7001791342538777  3.673809647712322  -2.036013994361252 
H  2.855085058478817  2.11637833619605  -2.2031180474201704 
C  3.959166735512281  2.854357714949276  -0.6313489845569223 
H  4.77325338646262  2.8233175286539165  -1.1579136924316646 
H  3.9603574264666936  3.6847533774255217  -0.12826466160926958 
C  2.420746038639491  -1.5692299303379358  -1.6302902360306157 
C  1.9114960277774835  -0.8919408779181514  -2.713886279724659 
H  1.1476008105181665  -0.368848397029795  -2.623406207407973 
C  2.5530194792146523  -0.9974140928660784  -3.952004300021895 
H  2.219543543966715  -0.5319794331510085  -4.685928811226168 
C  3.6601363080962144  -1.7751344997048135  -4.092345726528336 
H  4.076748963068551  -1.8416043863732316  -4.920821495566383 
C  4.169459458503568  -2.4711795485408827  -3.0054805470097636 
H  4.927041060932234  -3.0005681281573153  -3.106210370961327 
C  3.5520498410062373  -2.378233528033861  -1.7774947728683246 
H  3.8868053437330627  -2.85078515870704  -1.049021081001389 
C  1.5010532567929773  -2.9688846124310193  0.762387257472115 
C  1.4141977554195133  -4.127112936865876  0.0024207513956976145 
H  1.4869015767153475  -4.080083753564194  -0.9233952725998781 
C  1.2205949648925825  -5.348184357997013  0.6134228414060188 
H  1.1702459971357757  -6.119518792962101  0.09661244011468234 
C  1.1002404736022726  -5.4371289347211  1.9838946574962473 
H  0.9694529347659161  -6.2645969534409165  2.3866734400568936 
C  1.1732375474653698  -4.303515782288377  2.752772240625707 
H  1.092835154873507  -4.361329923549005  3.677701313763642 
C  1.3691716757789167  -3.0579298541473676  2.139519859481428 
H  1.4116100733304497  -2.2878964872276133  2.658384549206495 
Br  -1.654629867976521  1.654629867976521  0.0 
C  -1.35204078  -1.31992066  -0.4819701 
C  -1.63807002  -1.59921746  -1.81393823 
H  -1.15796809  -1.15933936  -2.50351594 
C  -2.63068217  -2.5263265  -2.14228996 
H  -2.83682226  -2.69439953  -3.05388981 
C  -3.31015444  -3.19615732  -1.16198741 
H  -3.99601236  -3.81199015  -1.38686634 
C  -2.99747104  -2.9701089  0.1242356 
H  -3.43865917  -3.46858118  0.80170842 
C  -2.03898543  -2.01594063  0.49125628 
H  -1.86191301  -1.84921651  1.41015686 
