41

Fe  0.0  0.0  0.0 
N  1.1929162837349483  1.4400870598682565  0.0 
H  1.4868260435363259  1.4471006775039317  -0.8619691306892459 
H  0.8614148199989129  2.2680146506550765  0.18190773473055455 
C  2.320347066596031  1.1998027120374697  0.8644018695287657 
C  3.306728374038343  0.3517985225465099  0.4470782889175031 
C  4.378479340085624  0.050813240420821915  1.3538150680990246 
C  5.44833738558375  -0.874985704069359  1.0390419643182764 
H  5.495582550210543  -1.301405944284682  0.19225204163727183 
C  6.401926535269496  -1.1171378139785353  2.023130750591272 
H  7.098243845797521  -1.7336263963293954  1.8289521706963028 
C  6.390310387213047  -0.529677226646131  3.2356950843218417 
H  7.054671834960661  -0.765734038399651  3.873052643601892 
C  5.408806789659895  0.43763460388127884  3.5788856443784383 
H  5.427666621734641  0.8930724439102018  4.412692181054636 
C  4.407195412650898  0.6851367445036709  2.6191045287934998 
C  3.3496967443313457  1.582963130165578  2.9911985864075197 
H  3.3527512235790757  2.0085175893911646  3.8401323955997966 
C  2.3440251941726338  1.813131089615421  2.112372156647853 
H  1.6422322446835484  2.406981769780713  2.352991265852949 
N  1.1929162837349483  -1.440087059868257  0.0 
H  1.6596168695112317  -1.4471006775039321  0.7820257619821447 
H  0.8308381776411407  -2.2680146506550765  -0.10900958444769124 
C  2.115990744744193  -1.1998027120374695  -1.0799186550940152 
C  3.1675837052905726  -0.3517985225465099  -0.8767948014108308 
C  4.027393164427572  -0.050813240420821915  -1.9865467619507955 
C  5.139317252988347  0.8749857040693587  -1.9010882008866314 
H  5.3615875220063565  1.3014059442846821  -1.0826254917511613 
C  5.867464628370422  1.1171378139785346  -3.061934618545225 
H  6.5889377318793905  1.733626396329395  -3.016771815884639 
C  5.603996020168001  0.5296772266461311  -4.2455863793359665 
H  6.12132548849698  0.76573403839965  -5.007144658670653 
C  4.572587301495717  -0.4376346038812793  -4.377211329738841 
H  4.417676874134635  -0.8930724439102017  -5.196718372640012 
C  3.7924132507629205  -0.6851367445036708  -3.230157019363568 
C  2.6806607609051816  -1.5829631301655787  -3.374253592898171 
H  2.5071452287913063  -2.008517589391164  -4.205271223486364 
C  1.8796838359378572  -1.8131310896154211  -2.30554075676648 
H  1.1431992203453194  -2.4069817697807134  -2.394990802393898 
Cl  -1.5202795795510768  1.5202795795510768  0.0 
Cl  -1.5202795795510768  -1.5202795795510768  0.0 
