42

Fe  0.0  0.0  0.0 
S  1.5897  1.56441  0.0 
P  1.5897  -1.56441  0.0 
C  3.06947  0.70484  0.42266 
C  3.1097  -0.6758  0.38237 
C  4.28164  -1.33215  0.82262 
H  4.33711  -2.39696  0.86657 
C  5.38258  -0.59703  1.2859 
C  5.31953  0.79851  1.30608 
H  6.15272  1.38167  1.6787 
C  4.16686  1.44726  0.86986 
H  4.1148  2.52768  0.91319 
C  6.60496  -1.29442  1.80756 
H  6.71315  -1.0821  2.89346 
H  7.506  -0.92788  1.2747 
H  6.53684  -2.3953  1.67468 
C  1.09805  -2.44392  1.49906 
C  1.34779  -1.80324  2.72739 
H  1.81228  -0.82548  2.75722 
C  1.01206  -2.4147  3.9335 
H  1.21629  -1.9087  4.87008 
C  0.41453  -3.67401  3.92866 
H  0.15172  -4.14395  4.86758 
C  0.15911  -4.323  2.71473 
H  -0.30456  -5.29863  2.71948 
C  0.50224  -3.71355  1.49707 
H  0.30085  -4.22435  0.56594 
C  2.20613  -2.8422  -1.11789 
C  3.01308  -3.93299  -0.75808 
H  3.30606  -4.10602  0.26379 
C  3.44096  -4.83915  -1.73802 
H  4.0716  -5.67526  -1.46459 
C  3.05968  -4.67363  -3.07363 
H  3.39612  -5.37029  -3.82922 
C  2.23249  -3.61249  -3.43332 
H  1.92661  -3.48535  -4.46531 
C  1.80421  -2.70721  -2.46179 
H  1.16516  -1.88394  -2.76416 
N  -2.16175  2.16175  0.0 
C  -1.35057  1.35057  0.0 
N  -2.16175  -2.16175  0.0 
C  -1.35057  -1.35057  0.0 
