54

Pd  0.0  0.0  0.0 
P  1.5837756304161257  -1.408458289229753  1.084273400280254e-15 
C  3.0094428266704316  -0.9702478610476516  -1.0507021491159712 
H  3.78185025557427  -1.5183620515091834  -0.7636665799109087 
H  2.794787674853705  -1.2297752235511592  -1.9821964131404657 
N  3.4250874778941904  0.4242680788415757  -1.0569284886467534 
C  2.903836949703636  1.428112449535158  -0.3115046184306854 
N  1.5837756304161266  1.4084582892297526  -6.14640911012617e-17 
C  1.0735764693770384  2.367122905232267  0.8150978040086847 
H  0.1666227547334702  2.2894721037592536  1.087326646207406 
C  1.7870379534706289  3.428278245386043  1.260904886476108 
H  1.3894571564329719  4.091372212840874  1.812149405861045 
C  3.122064239561208  3.5115695724328337  0.881606309776909 
H  3.6443038778059726  4.257230330036343  1.1495413482025465 
C  3.6843574643932175  2.5265262661388794  0.12434744780597853 
H  4.602810002837073  2.576995623693567  -0.11172567343843441 
C  4.731012617726964  0.6054745561307073  -1.6918022727497561 
H  4.813410555202257  1.5282571830204048  -2.0128072157185093 
H  4.815226036023056  -0.012393080883883545  -2.4489327920850448 
H  5.439387406155895  0.41993178429405387  -1.0400840369012818 
C  1.3850605538492105  -3.173946627801614  -0.3055340156378295 
C  1.3173560990935766  -4.079003699599685  0.7634283099820067 
H  1.4090215609784524  -3.77254259365096  1.6567760158827585 
C  1.116912483054243  -5.419246179220662  0.5047790636879241 
H  1.07771539662964  -6.034669998746073  1.2273552332206512 
C  0.9725594360323783  -5.875244837406864  -0.7855503909661676 
H  0.8234093814683788  -6.799313373871485  -0.9482858239231352 
C  1.0461523085267803  -4.988019234380037  -1.848785129136307 
H  0.9527308045948986  -5.3053590579430265  -2.739388783397924 
C  1.2547959666839792  -3.6412903574906004  -1.6108048441064295 
H  1.3094378843242866  -3.033378876158596  -2.339460648791555 
C  2.090517108935917  -1.1790842300400588  1.717779248017189 
C  3.4114116262614083  -1.4195820442744032  2.099579098001426 
H  4.043295648887476  -1.7377237907687555  1.465495072743389 
C  3.793941590177639  -1.1907708061537186  3.413574613220549 
H  4.6967176966983155  -1.3336706928873676  3.6730978951567117 
C  2.874127368065512  -0.7579017608563844  4.346103586724139 
H  3.1432912607155643  -0.615613141780843  5.246137968164682 
C  1.5620598621936972  -0.5299422412488954  3.975856010829747 
H  0.9305449573545448  -0.23828686306609714  4.622778885168758 
C  1.162502065545152  -0.7272253252598225  2.654894261988937 
H  0.26423904924612773  -0.5546601404342807  2.394994010862614 
Br  -1.654629867976521  1.654629867976521  0.0 
C  -1.35204078  -1.31992066  -0.4819701 
C  -1.63807002  -1.59921746  -1.81393823 
H  -1.15796809  -1.15933936  -2.50351594 
C  -2.63068217  -2.5263265  -2.14228996 
H  -2.83682226  -2.69439953  -3.05388981 
C  -3.31015444  -3.19615732  -1.16198741 
H  -3.99601236  -3.81199015  -1.38686634 
C  -2.99747104  -2.9701089  0.1242356 
H  -3.43865917  -3.46858118  0.80170842 
C  -2.03898543  -2.01594063  0.49125628 
H  -1.86191301  -1.84921651  1.41015686 
