63

Ni  0.0  0.0  0.0 
P  1.5549960940465413  -1.2892195885495994  1.5788386425153346e-16 
N  1.5549960940465413  1.2892195885495998  -1.5788386425153351e-16 
N  3.6887562705066794  0.7799202916480629  0.3498171172605177 
C  2.428868011200562  0.28842065448162013  0.21193259772382494 
C  3.5895928425568115  2.141222113763899  0.22362910807845157 
H  4.309859998481056  2.7567295044736015  0.28332941024314295 
C  2.282329650332254  2.463321757368581  -0.0020844844334408467 
C  1.6961343556417097  3.82597525379613  -0.29066560848081685 
C  1.0198901694829066  3.7956461963203676  -1.6651498459164809 
H  0.2905435888290291  3.140805653639985  -1.6561565733988928 
H  1.676715163925204  3.544361959812246  -2.3474423045868185 
H  0.6595851689028869  4.6827083462886225  -1.8714374331599553 
C  2.8332925553764032  4.851111969634321  -0.3152141851538471 
H  3.269570974012117  4.875613001328647  0.5606418194945525 
H  2.469151145708449  5.737832649457452  -0.5237612775311846 
H  3.487541587529609  4.597581606845061  -0.999706492685892 
C  0.6846553983597187  4.215768315011834  0.7879663159511766 
H  1.1282575744097603  4.230683314885233  1.66115200764709 
H  -0.044554430069151385  3.5610433887875805  0.8039637252224334 
H  0.32259691529785606  5.104919089000326  0.5898636507530177 
C  4.951250783311874  0.08622700390789415  0.650467075985043 
H  4.791021065434638  -0.8797173519337703  0.6950422812746689 
H  5.299127653952565  0.4003056322473378  1.511927184227835 
H  5.604314713447829  0.27746782679779103  -0.054644589509027654 
C  2.0673872967783655  -1.9079232035771743  -1.6933590440644644 
C  3.57932737011692  -2.0492957219741736  -1.8661164047619947 
H  3.7770611423254477  -2.3760056430310357  -2.768334295745778 
H  3.9251246736513217  -2.688138927829103  -1.2060975616966285 
H  4.007155884013596  -1.1780108454670526  -1.7319644511164092 
C  1.364559093822936  -3.2234131791118985  -2.0054552334005487 
H  1.6391127153596494  -3.538703897318638  -2.8915420191691763 
H  0.39480699291600785  -3.0866942046520878  -1.9926558268013246 
H  1.608639133491857  -3.8916777809313996  -1.3314972479220386 
C  1.5839627324661714  -0.8275001923452051  -2.674391473406134 
H  1.8210912758384332  -1.0865171262840367  -3.5887313073032936 
H  2.01208652441879  0.02660230096145436  -2.456236850050452 
H  0.611740848122325  -0.7339454317200648  -2.602754231923154 
C  1.908970885471425  -2.4285211458990674  1.4353210854916136 
C  3.3603076813012476  -2.913671507835207  1.5584023244507006 
H  3.442214673260331  -3.5028702073791482  2.3376946618465886 
H  3.9537925257695945  -2.141141312943833  1.6676666707283128 
H  3.6093504914584984  -3.4055388209229673  0.7493791140142904 
C  1.538491984054267  -1.6094680696206074  2.681517170320787 
H  1.6990646484319836  -2.1465372129610087  3.4855342190991405 
H  0.5911575369857858  -1.3602100123787662  2.6388654845686546 
H  2.088907951405627  -0.8001717292091161  2.7160683827632175 
C  0.9868295183855472  -3.6628315877612194  1.3342952857221362 
H  1.1661528127656153  -4.266109696399791  2.085350869371022 
H  1.158938050347024  -4.130082644408365  0.4906917809355539 
H  0.050666429826162096  -3.374985096522677  1.3633342096113175 
Br  -1.5839191898578664  1.5839191898578664  0.0 
C  -1.2937473829822488  -1.2398794889499034  -0.4598005675376139 
C  -1.601562203225019  -1.4938654694550033  -1.7919791134336869 
H  -1.1309417375171225  -1.0428217585005106  -2.480879663633267 
C  -2.60218398542082  -2.411889969420291  -2.121542410022959 
H  -2.8231586547736818  -2.5626138747145775  -3.03270050271447 
C  -3.2683208079706407  -3.09759503004543  -1.143064365570095 
H  -3.9596020908062854  -3.707191723557817  -1.3683280760515548 
C  -2.9347449854640226  -2.896087320001541  0.14198826503765638 
H  -3.3668350933519986  -3.405606940434718  0.8171022443470677 
C  -1.9675509241539992  -1.9516175659140573  0.5112421903797603 
H  -1.7755298364628027  -1.8022912010877177  1.4301324877763764 
