94

Pd  0.0  0.0  0.0 
O  0.17695940453300862  -2.1038216136249988  -7.430650605018922e-15 
C  1.2082801134076546  -2.8451050975199177  0.27465081822362636 
C  1.1409294438703808  -4.216223323544841  0.5922485788818986 
H  0.30738335416649215  -4.6246889236491295  0.6481254960373818 
C  2.2503012282688424  -4.9561138242721325  0.8188082419159303 
H  2.134781318491369  -5.85639538538816  1.0180852128872253 
C  3.5142957170591194  -4.478556100494418  0.7731950555763086 
H  4.251687331870186  -5.024300340412459  0.9301202957469363 
C  3.64748471722191  -3.1630895856028056  0.4861174729709227 
H  4.50367177343892  -2.8086313407431023  0.4026789481911236 
C  2.5131361434849717  -2.282754734244545  0.3059873734733531 
C  2.776592111765126  -0.8749737445783781  0.04864352195923651 
H  3.659340933260281  -0.6163765810081296  -0.0869157829310455 
N  1.8908577663946509  0.014236656396858054  3.0236142545348543e-15 
N  2.4245589337061766  1.3084635350524885  -0.14374272355712012 
C  1.562154863835858  2.338853465066563  -0.09016154778895201 
O  0.3321828290723407  2.08958495722814  4.379280774868439e-15 
C  2.0500081230069567  3.681366260169433  -0.19352693126531942 
C  1.1222458710240117  4.688031791542484  -0.06879970191682487 
H  0.21909215246598224  4.483496275506056  0.015714931931494293 
C  1.538818170223594  6.002044129256015  -0.06919451350909576 
H  0.924158709032649  6.687894794555667  0.05884392476817028 
C  2.860838816509231  6.289878146200927  -0.26164151786059364 
H  3.122259559265671  7.182826751063231  -0.29134276920014535 
C  3.7953146560827236  5.341795249206986  -0.4047345494204655 
H  4.68779607737094  5.564745788739266  -0.539590508049046 
C  3.3974270399466153  4.038290413869857  -0.34937897898493003 
H  4.038253613863419  3.3668255134926146  -0.41582624923309214 
As  -2.146506991910648  1.4710455076283324e-15  0.1465069919106443 
P  0.1465069919106461  1.3877787807814457e-16  -2.1465069919106456 
C  -2.5936647812043296  -0.37085924841565254  -1.7007276275512662 
C  -1.6328348729026003  0.190548314623581  -2.625819977252247 
C  -2.592255710231277  -1.5978368094609166  1.031449560921438 
C  -1.8978993142535332  -1.9660082450410596  2.1790817883304507 
C  -2.243638600378867  -3.0682243612057327  2.9310255158104344 
C  -3.278742582374347  -3.8198339566890964  2.4929699686084 
C  -3.959496108938103  -3.5477365498837967  1.3313963302707403 
C  -3.614639699894735  -2.4519649960131  0.6051426425902475 
C  -3.5511988583159813  1.167654075612236  0.7125177605016724 
C  -3.732318614561622  2.38234355371757  0.030586762762328856 
C  -4.731473090129013  3.2311352258788393  0.36808177194530156 
C  -5.548745649742592  2.943022704356542  1.4219520619927875 
C  -5.4134781579618885  1.7481051521594713  2.1851444945540637 
C  -4.369412221582241  0.9190077694530038  1.7948524622487922 
C  0.5685088505638487  -1.7710838999815275  -2.3374387611884053 
C  -0.14710559934344786  -2.606422800793088  -3.209075526059433 
C  0.20035630996375275  -3.937346361236621  -3.320177091471077 
C  1.2059059327784054  -4.437646568668685  -2.5688107637049375 
C  1.9105545335587162  -3.637729335311861  -1.724062576848546 
C  1.5736729811458983  -2.3290694363720554  -1.602488407919401 
C  1.0501462948509044  0.8871462007580564  -3.442611975568316 
C  1.6654644995212997  0.2772122539446714  -4.504857779290717 
C  2.3494628015067427  0.9392684522047389  -5.4710560163137885 
C  2.434592920008586  2.285362665246771  -5.418377723454935 
C  1.837044849551651  2.968317232000763  -4.329100245838206 
C  1.1612477280964866  2.255376408730036  -3.377399787108157 
H  -3.571733888743898  0.007972642545635372  -2.0377130564164387 
H  -2.7031569316859105  -1.3737733449551632  -2.0036345339520016 
H  -1.723665326595431  -0.11929332170504911  -3.5854753940968376 
H  -1.8085993759593264  1.2210410068644906  -2.682103817769173 
H  -1.1333795184663171  -1.4009549129532444  2.4774549502367984 
H  -1.8075307352480097  -3.348919616298251  3.882033446239811 
H  -3.6985826508638193  -4.56243203869092  3.098308977344847 
H  -4.648349890724752  -4.188199886673994  1.0126455945133985 
H  -4.095026976430692  -2.2388985797672056  -0.3048911022843892 
H  -3.154875130296637  2.6447609543302004  -0.8781009340486519 
H  -4.948904649607718  4.123293737013442  -0.06994029137198954 
H  -6.25108416089091  3.6284140692165483  1.7288378758281029 
H  -6.095937857167577  1.4652440752455786  2.971264574521073 
H  -4.24483819354097  0.053762826556712856  2.3373299643906558 
H  -0.9221580346803901  -2.1887000617817414  -3.7730308929025496 
H  -0.2654636305567454  -4.495380013015016  -4.056100216869606 
H  1.361065961254201  -5.444864394274193  -2.6676109527021596 
H  2.71142281759847  -4.087067326759126  -1.206216295543593 
H  2.002534946137585  -1.7744685173363213  -0.8661476813612312 
H  1.3664313462668667  -0.6480897466430212  -4.721965496710307 
H  2.9055890502549406  0.4907611988531678  -6.2095722647093625 
H  2.830790474937632  2.8837445602926755  -6.114509259265176 
H  2.0224612302389557  3.915988632399148  -4.187082667208834 
H  0.5408676074432188  2.7254771152002446  -2.683396039514205 
N  -2.0164030029804413e-16  4.424045268038792e-17  1.91 
H  -0.9010351756327207  -0.18037319787374412  1.8793149586718432 
H  0.43660846662770625  -0.7203752679532374  1.5393345171312731 
C  0.4042162345465051  0.10070183732291119  3.338165965736767 
H  1.397402201465919  0.21534958419681216  3.3713543560425263 
C  -0.22705086212636738  1.3250079334704985  3.9487851069320463 
H  0.032927392370184605  2.117246823787876  3.434416748790123 
H  0.07779041886450466  1.4222595498745814  4.875064706464842 
H  -1.2020851466220828  1.2320830264773104  3.9344520780045826 
C  0.05210864219293604  -1.1726276613569193  4.087696973233285 
H  0.4874133849821612  -1.9368924005348944  3.655775106046139 
H  -0.9195426320011643  -1.299706152466684  4.076684777528245 
H  0.36124707533241707  -1.10267407494451  5.015222382537045 
