65

Pd  0.0  0.0  0.0 
P  1.5337779141714096  -1.4627458118210412  1.791346976412835e-16 
N  1.5337779141714096  1.4627458118210417  -1.7913469764128354e-16 
H  1.5642414460730854  1.779476508471077  0.8146934141280856 
C  2.882755333495579  0.8527383362985864  -0.2868284190247961 
H  2.906252797777842  0.6308912611762127  -1.2414544214110528 
C  2.9753634135609346  -0.4519460282555769  0.4850161394159037 
H  2.96087386875608  -0.28048834369193526  1.4401488032356782 
H  3.799203918582628  -0.9164270095097014  0.26719316005226945 
C  1.4024269406600205  -2.8121323655536488  1.1887483082483328 
C  1.4869940378024575  -2.5391850518279973  2.533404022552533 
H  1.5780605870382736  -1.6563330350498477  2.8141140332059416 
C  1.4405281048815788  -3.5390511517207757  3.4728241891249954 
H  1.5234426347301409  -3.338833630923094  4.377889018353052 
C  1.2716554424382496  -4.8178481886928095  3.069770033817226 
H  1.2561011909093895  -5.494967290313708  3.705110633401014 
C  1.1257006260225206  -5.1303283587306625  1.7685735094988453 
H  0.9772914580410282  -6.011053280032036  1.5111349306926927 
C  1.200951838578392  -4.112083713650645  0.8056429887577293 
H  1.1127336257574427  -4.322195304821347  -0.09701594804089192 
C  1.924103031551341  -2.2327687719946585  -1.5814799662176724 
C  3.1945884294144005  -2.6401328370184873  -1.880964243507885 
H  3.887036043436299  -2.4811796011787353  -1.2791928993484238 
C  3.4551286441501494  -3.287331893990268  -3.073262070042985 
H  4.33175841612103  -3.5195526511819195  -3.2785131914129013 
C  2.5247217820696286  -3.573954153723863  -3.9044895246056535 
H  2.726151276191596  -4.0105193141497875  -4.7000563662978365 
C  1.2321764304920304  -3.230795502409666  -3.6125791031688457 
H  0.5479734794607735  -3.471538478498996  -4.194539240346465 
C  0.9325750148661682  -2.5205621511299694  -2.4447555555020757 
H  0.060579912313796225  -2.2501199753239676  -2.2678364478002053 
C  4.022956785748658  1.8010230476888265  -0.0167154714943879 
C  4.774770860997244  2.2965371104484036  -1.0673756971932946 
H  4.568519074229512  2.0489140873142144  -1.9401552448850428 
C  5.83263289988453  3.1577003691774  -0.8273422026628018 
H  6.314451331258449  3.5037797124980106  -1.5434899369433492 
C  6.167483869696403  3.4942404747936626  0.422092243527904 
H  6.904375017385144  4.038811365759546  0.5740856353928638 
C  5.431894706007707  3.0388600220745854  1.4718948037958601 
H  5.6502498266630505  3.294632752357933  2.338462944063546 
C  4.354339629775562  2.190935905678795  1.2495567716898286 
H  3.854944427958996  1.8861176683632406  1.9708995297476466 
C  1.2715574023940586  2.6177555861417607  -0.8495419203469848 
C  1.320037513863951  3.8824577135038103  -0.32395525019849 
H  1.5165165962692035  4.012533443998041  0.5757363439122924 
C  1.0718704818852243  4.967055124194669  -1.1557115371970166 
H  1.0844563237050455  5.828427373438305  -0.8046281071997472 
C  0.8116617730952023  4.783337462637709  -2.468899912374767 
H  0.6564562866900698  5.518911190694046  -3.016917957317677 
C  0.7739137622093941  3.4968712873168646  -3.0104163732783342 
H  0.5927003754885658  3.3713045972496825  -3.9139455564366448 
C  1.0077338466354488  2.411218389071351  -2.1874612817635284 
H  0.9872090531226878  1.5471825943446147  -2.532862408400661 
Br  -1.654629867976521  1.654629867976521  0.0 
C  -1.35204078  -1.31992066  -0.4819701 
C  -1.63807002  -1.59921746  -1.81393823 
H  -1.15796809  -1.15933936  -2.50351594 
C  -2.63068217  -2.5263265  -2.14228996 
H  -2.83682226  -2.69439953  -3.05388981 
C  -3.31015444  -3.19615732  -1.16198741 
H  -3.99601236  -3.81199015  -1.38686634 
C  -2.99747104  -2.9701089  0.1242356 
H  -3.43865917  -3.46858118  0.80170842 
C  -2.03898543  -2.01594063  0.49125628 
H  -1.86191301  -1.84921651  1.41015686 
