50

Pd  0.0  0.0  0.0 
P  1.5500603851140768  1.445480128711564  2.7225785409385213e-15 
N  2.9459921816736765  0.46314373625926697  0.1839508124954589 
C  4.3330429650060225  0.6682204987217348  0.29868069506779993 
H  4.759604703764904  1.5149516060465782  0.35359421722262707 
C  4.968972035035338  -0.5332372076169896  0.3194346771184812 
H  5.907601789677621  -0.6651142125052645  0.37722740401307814 
C  3.9776325652721676  -1.5610865916997152  0.23836366299830175 
C  3.9202222493229  -2.9571923630040864  0.22982077395351666 
H  4.708460875355087  -3.4816841702181867  0.3057213839391631 
C  2.6763610889735423  -3.5509099506439563  0.10760952282878235 
H  2.6161095538198955  -4.499689510292723  0.10900584095951354 
C  1.5253763026601155  -2.8054969189474113  -0.01598863189866241 
H  0.6930931636944927  -3.251435989430907  -0.11455623311663045 
N  1.5500603851140764  -1.445480128711564  0.0 
C  2.7482239394687284  -0.8942529902864789  0.13590396933108798 
C  1.8160005034835809  2.440505232434038  -1.4888869622653518 
C  0.939524826860836  2.3119998062366047  -2.5726347759778143 
H  0.15334660399545053  1.7867185001028494  -2.487411473303872 
C  1.2172347635394338  2.9447293518272666  -3.76128248375613 
H  0.627637999293138  2.8429328988167653  -4.499211760682353 
C  2.3403286176959823  3.7245138453053626  -3.8865568166695827 
H  2.515148141931363  4.171751242180708  -4.706631267425355 
C  3.2238205810126397  3.862679068771987  -2.821644077625053 
H  4.0073165410066895  4.3911615984356205  -2.913517014409314 
C  2.9502116197619457  3.2259710769296124  -1.6301233982210472 
H  3.544954327364736  3.3257557554838346  -0.8961541756516331 
C  1.5931737957153125  2.5734537601812137  1.410541403339704 
C  1.2405117825841743  3.905557662374827  1.2726187139269551 
H  1.0365185261411822  4.257708567039094  0.4141921290229626 
C  1.1858179133590543  4.725269273392368  2.3966976192677887 
H  0.9349535573086409  5.636096533379362  2.3056754388500624 
C  1.4945233372840978  4.219049315424332  3.645014071692465 
H  1.4504656849150936  4.778709862761698  4.411498758442185 
C  1.8693566761888556  2.8875044108841292  3.7721813050449877 
H  2.103003336850903  2.5425999392852097  4.625258607188593 
C  1.905468797881853  2.0642001562204735  2.6702780974448044 
H  2.142266354621735  1.1500921973806868  2.766752999402681 
Br  -1.654629867976521  1.654629867976521  0.0 
C  -1.35204078  -1.31992066  -0.4819701 
C  -1.63807002  -1.59921746  -1.81393823 
H  -1.15796809  -1.15933936  -2.50351594 
C  -2.63068217  -2.5263265  -2.14228996 
H  -2.83682226  -2.69439953  -3.05388981 
C  -3.31015444  -3.19615732  -1.16198741 
H  -3.99601236  -3.81199015  -1.38686634 
C  -2.99747104  -2.9701089  0.1242356 
H  -3.43865917  -3.46858118  0.80170842 
C  -2.03898543  -2.01594063  0.49125628 
H  -1.86191301  -1.84921651  1.41015686 
