97

Pd  0.0  0.0  0.0 
S  0.15355  2.11873  0.0 
N  2.11317  -0.01989  0.0 
O  0.13328  -2.09884  0.0 
N  2.93269  -1.10159  -0.20391 
C  2.71397  1.28591  0.16595 
C  2.56356  -2.45412  -0.22095 
C  1.22229  -2.92524  -0.13369 
C  1.0231  -4.3092  -0.09395 
C  1.89092  2.42857  0.14763 
C  3.44898  -4.68976  -0.16923 
H  4.31988  -5.33462  -0.1491 
C  2.15417  -5.20907  -0.13619 
C  4.10897  1.46815  0.21913 
H  4.77982  0.6205  0.19196 
C  1.96371  -6.58245  -0.11619 
H  2.81265  -7.25574  -0.13101 
C  -0.25961  -4.87414  -0.03913 
H  -1.13266  -4.21967  -0.01271 
C  -0.19844  3.07523  1.50495 
H  0.52898  2.82974  2.30788 
H  -1.24064  3.01175  1.78219 
H  -0.14418  4.15442  1.30846 
C  2.43189  3.71648  0.19773 
H  1.78829  4.58622  0.17155 
C  4.64823  2.75816  0.27357 
H  5.72207  2.89505  0.30079 
C  3.813  3.87927  0.26661 
H  4.23246  4.87641  0.29932 
C  3.64687  -3.32501  -0.21511 
H  4.65951  -2.93273  -0.21207 
C  0.67194  -7.10122  -0.06771 
H  0.52994  -8.16871  -0.0578 
C  -0.43376  -6.24402  -0.02915 
H  -1.43167  -6.65333  0.01153 
N  -0.04398  0.0  -1.95602 
N  -1.95602  0.0  -0.04398 
C  1.00526  0.01959  -2.99932 
C  2.34556  0.1233  -2.81765 
H  2.86181  0.24397  -1.96721 
C  3.38705  0.07707  -3.8494 
H  4.4165  0.10631  -3.54054 
C  3.05404  -0.00201  -5.12952 
H  3.85046  -0.03231  -5.86354 
C  1.61186  -0.03872  -5.54132 
H  1.33482  -0.0707  -6.60988 
C  0.58283  -0.04138  -4.43611 
C  -0.71071  -0.07085  -4.75161 
H  -1.02754  -0.09621  -5.7852 
C  -1.73484  -0.07097  -3.70253 
H  -2.77997  -0.09646  -3.99538 
C  -1.39368  -0.04607  -2.40703 
C  -2.40884  -0.06366  -1.39028 
H  -3.45979  -0.09104  -1.65714 
C  -3.06864  -0.07817  0.94699 
H  -4.05285  -0.20475  0.44063 
C  -2.93268  -1.31777  1.85584 
H  -1.95909  -1.39569  2.34535 
H  -3.01056  -2.23661  1.23888 
C  -4.0132  -1.30698  2.94625 
H  -3.85837  -2.18218  3.6138 
H  -5.01225  -1.38465  2.47277 
C  -3.95387  -0.01149  3.77238 
H  -4.72531  -0.02734  4.56972 
H  -2.97107  0.05657  4.28173 
C  -3.24212  1.24539  1.68725 
H  -2.35511  1.45328  2.11323 
H  -3.41521  2.10288  1.00813 
C  -4.19986  1.21355  2.87159 
H  -4.04698  2.14116  3.47539 
H  -5.23141  1.20249  2.48079 
O  -1.74776  1.67117  12.9075 
O  -0.01049  0.44918  13.54746 
N  0.0  0.0  1.91 
N  0.7052  -0.98127  4.55825 
C  -0.70233  0.45359  3.13336 
H  -0.67052  1.52702  3.30249 
C  -0.17874  -0.06294  4.46754 
C  1.25819  -1.53455  3.43674 
H  1.96187  -2.36039  3.5141 
C  0.97797  -1.01269  2.26505 
H  1.52945  -1.48287  1.60107 
C  0.19893  -0.30333  7.07421 
H  -0.23224  -1.32249  6.90058 
H  1.30264  -0.32713  6.93222 
C  -0.08198  0.06725  8.48533 
C  -1.00013  1.07168  8.84568 
H  -1.5514  1.63747  8.11153 
C  -1.24049  1.34251  10.17678 
H  -1.95729  2.12316  10.41409 
C  -0.55941  0.64507  11.17843 
C  0.36497  -0.34464  10.82517 
H  0.91235  -0.90572  11.57132 
C  0.59878  -0.64161  9.48182 
H  1.29649  -1.42991  9.22425 
C  -0.81118  0.95391  12.59205 
S  -0.53567  0.89069  5.91095 
