71

Pd  0.0  0.0  0.0 
P  1.496319730204746  1.501042059703857  8.018369208208875e-16 
P  2.378928771712138  -1.6358948299453082  -1.3372307655029732 
C  3.143176133515391  0.8948728060724758  -0.4938520353575211 
H  3.7359689684803667  1.6632706084815263  -0.6884762940385029 
H  3.5434005266059843  0.37807138469655044  0.24867264843359893 
C  3.0284613501070945  0.006200629049553541  -1.7354806031075454 
H  3.922234860863516  -0.08800870977996467  -2.1518576581279696 
H  2.431374119714685  0.4413069445440405  -2.394829731808832 
C  1.4526384089147566  -2.5365252328446894  1.0191660710171735 
H  2.052273909873149  -3.278345841935206  0.7590746641638012 
H  0.531560828827067  -2.894791063254596  1.0832549641307434 
C  1.8676897538702635  -2.0076137777208864  2.3406413843278235 
C  3.7391271627199294  -2.7546866580246103  -1.0272216809218606 
C  4.65823370007401  -2.4491908346161253  -0.029894109422404336 
H  4.569605639354731  -1.6426414663466895  0.4619978232186135 
C  5.695678636508916  -3.313231096922885  0.24896730594104044 
H  6.315463790595734  -3.0966457668195178  0.9350061951868616 
C  5.844230593727586  -4.492889050910759  -0.4593761683704378 
H  6.564135307847357  -5.083871398317478  -0.2660092693369651 
C  4.9419308669668975  -4.800685516048552  -1.4441300305798315 
H  5.034709791204296  -5.6120440433640875  -1.9288726750518608 
C  3.8932148407006673  -3.940051260899919  -1.739494525936185 
H  3.2793931425894502  -4.160101807028628  -2.4304077839334073 
C  1.5093667609744374  -2.2130430946454425  -2.7979124899164254 
C  1.981717648323457  -1.9062648454797588  -4.065223089201183 
H  2.755687750540912  -1.3642612155744724  -4.1656264558928475 
C  1.3165199409913675  -2.3946472430686905  -5.19538927339071 
H  1.6273108730822852  -2.18065099098274  -6.0665821226630285 
C  0.2007085664527899  -3.195063708572019  -5.026342983276009 
H  -0.24641927411827158  -3.5382911629057396  -5.790655268129457 
C  -0.2729412163059066  -3.505503174266895  -3.7651191207394135 
H  -1.044483490729816  -4.051397328066731  -3.6648553105986155 
C  0.3874286730964194  -3.0102361861142333  -2.6423748356873507 
H  0.06899858529506497  -3.219507110915618  -1.7711142953117425 
C  1.2236844525800719  2.83094532063836  -1.18555465582584 
C  0.4013891624372725  2.6227220580192814  -2.313010015790601 
H  -0.06423371462233485  1.7998811675756938  -2.4169106672454546 
C  0.27756448469367134  3.6136632281111174  -3.2642035905159155 
H  -0.29393329847647065  3.468832423008368  -4.010499578529388 
C  0.9586750725247135  4.80705596712165  -3.1614047694068503 
H  0.8730070680837652  5.470967433530935  -3.8346127668232572 
C  1.7705903190072145  5.019697380422868  -2.064115526828334 
H  2.2348438072823815  5.842552634221473  -1.9752662729182657 
C  1.9117799076804862  4.043806231650525  -1.0955344069431279 
H  2.4854960109606563  4.200591088862607  -0.3541240810196045 
C  1.7620379149274195  2.2491615495878037  1.6349733591601838 
C  0.7179460359055438  2.3097830021392083  2.547402812680395 
H  -0.1349534017503271  1.9655077956856628  2.3138627701444627 
C  0.9219635889772937  2.8751254550798135  3.805969056046922 
H  0.21626719825159535  2.9031712148424047  4.440321150294363 
C  2.1733463310144696  3.3949980662136774  4.116488236009162 
H  2.3201277433670517  3.786759853432362  4.970417325022453 
C  3.1850459829368747  3.351809416314828  3.2194970795198476 
H  4.031713307749274  3.7150200748539763  3.4504623553052207 
C  3.0028817774710603  2.787269239361237  1.9668416357316316 
H  3.717614486194979  2.765663605601448  1.3413258152522223 
N  1.4963197302047448  -1.501042059703857  0.0 
N  2.1644448997320813  -1.5889027889535252  3.3517389173532073 
Br  -1.654629867976521  1.654629867976521  0.0 
C  -1.35204078  -1.31992066  -0.4819701 
C  -1.63807002  -1.59921746  -1.81393823 
H  -1.15796809  -1.15933936  -2.50351594 
C  -2.63068217  -2.5263265  -2.14228996 
H  -2.83682226  -2.69439953  -3.05388981 
C  -3.31015444  -3.19615732  -1.16198741 
H  -3.99601236  -3.81199015  -1.38686634 
C  -2.99747104  -2.9701089  0.1242356 
H  -3.43865917  -3.46858118  0.80170842 
C  -2.03898543  -2.01594063  0.49125628 
H  -1.86191301  -1.84921651  1.41015686 
