55

Pd  0.0  0.0  0.0 
P  1.6255219454070744  1.3600655884919666  0.0 
N  1.6255219454070744  -1.360065588491967  0.0 
C  2.6087635900632353  1.7279263550853956  1.476469665999008 
C  2.2071662641639587  2.791569812607185  2.2866277512525253 
C  2.8524338275354286  3.0357171116857407  3.4892069494816305 
C  3.909248246991054  2.233177352400853  3.887907184743198 
C  4.290032381246174  1.1676002271043255  3.094553919706499 
C  3.6524175547476996  0.9006923455495073  1.9055206250535426 
C  1.2500383203190506  2.9530598884229633  -0.7571554316506818 
C  2.207650863515701  3.964583719803338  -0.7274708285367975 
C  2.003089167317342  5.129124579745371  -1.4531880034568405 
C  0.8532015477720983  5.280639721179462  -2.2011794301007805 
C  -0.11606162163047418  4.300065154567023  -2.204000378970787 
C  0.07920847042795542  3.1280476956388537  -1.4905264291204419 
C  2.649182339924878  0.4525522005761953  -1.269502389698161 
C  4.015769486839804  1.0857119851383705  -1.5277455059668346 
C  1.8314135721677942  0.4596253778416146  -2.5940283662816697 
C  2.6831142130402608  -0.9636181049571066  -0.7551227305818663 
C  3.7235801541112927  -1.8236252324787434  -1.075252370076799 
C  3.699935116746302  -3.118043442818162  -0.5941662042502361 
C  2.669405392856243  -3.5244697429004264  0.20231026795755822 
C  1.6525161523524219  -2.6331726905692197  0.4839486123875747 
H  1.4790318390749988  3.3522784000846215  2.0202317322705863 
H  2.573118030474462  3.7559846879621075  4.047848152828802 
H  4.372111176585285  2.421443067059447  4.701005333241638 
H  5.0106285912854815  0.6140057818284645  3.400758283223251 
H  3.9188231533268203  0.12493263665938481  1.3620068799574057 
H  3.0062785677466657  3.858651273442608  -0.18041628203998583 
H  2.6605752427224654  5.851299600796425  -1.423848787068419 
H  0.7532862827257769  6.087756303856299  -2.7329816224418715 
H  -0.9330105793610812  4.424874628048531  -2.704533860160773 
H  -0.6145027935660088  2.443203208813209  -1.5010107542031803 
H  4.5231067844693404  1.0968438600480124  -0.7161216042765444 
H  4.489579337837302  0.5941043702869708  -2.1806903413992513 
H  3.910954709305459  1.9892611377660623  -1.8279406944629346 
H  0.97321235233227  0.06418358845236982  -2.449720336437633 
H  1.71004512816137  1.3490525718207562  -2.909958433558996 
H  2.289607401693592  -0.046254839128570646  -3.2630369093232985 
H  4.435811281373565  -1.5065858016979778  -1.64746486617328 
H  4.420402126150303  -3.732899415262273  -0.8104297044305905 
H  2.6584007684881965  -4.412493574412237  0.5702115902025422 
H  0.9042909216971957  -2.9210200071343584  1.023964136754423 
Br  -1.654629867976521  1.654629867976521  0.0 
C  -1.3788582233137676  -1.3788582233137676  0.0 
C  -2.618821778986925  -1.1522995256591737  0.5874691967409313 
H  -2.8106553971707884  -0.30966242518610043  0.9782000501948407 
C  -3.5854032518711887  -2.161278806785389  0.6049610958635797 
H  -4.421117162155692  -2.007227978208148  1.0287619599160838 
C  -3.3399450833386255  -3.3715361338635086  0.016423527177974573 
H  -3.9908757182151104  -4.061238805801311  0.045080339651694 
C  -2.164680252095028  -3.57422256025893  -0.6007549227026177 
H  -2.0132444416912625  -4.3986257169530365  -1.0474288760065327 
C  -1.1561711193052586  -2.601214672555715  -0.5998012209931929 
H  -0.3196784027493984  -2.7832859823079534  -1.0129111498427692 
