66

Pd  0.0  0.0  0.0 
P  1.5709416952898032  1.4227586548673679  2.055286847288396e-15 
N  1.570941695289803  -1.4227586548673679  -7.771561172376096e-16 
N  2.8407469968662604  -1.2706913177544759  -0.4896859616854047 
C  1.6555825478134083  -2.233176033848267  1.0733667117671506 
C  2.9746202110101563  -2.6122952387497365  1.2492492906184296 
H  3.305087198432122  -3.1998779796032317  1.9187819207981414 
C  3.7161592668552546  -1.9831301115950901  0.28567943771263826 
C  0.45184803220724357  -2.6028624934600932  1.8881956554836425 
H  -0.35218121003077907  -2.5449257522440045  1.3298619276438934 
H  0.3683145999895028  -1.9867955962380126  2.645626757201219 
H  0.5523887120076476  -3.5194736316447153  2.2234997608285747 
C  5.195527343928054  -2.027513162637493  0.07730298194536998 
H  5.559044752185508  -1.118811398232817  0.12574363905916783 
H  5.390175034127285  -2.4094239653875578  -0.8040362917982529 
H  5.606509317964599  -2.5817310177195325  0.7726197415055839 
C  2.9819670094412993  -0.3643870506261857  -1.6326070715759315 
H  2.1681540423625427  -0.4917940492621544  -2.200027428377732 
C  4.186375035108499  -0.6434620776110076  -2.528921596183177 
H  4.201613871084557  -1.6007483505431996  -2.7812709166373666 
H  5.022930876840689  -0.4375569305941305  -2.041329569899224 
C  4.086834483824532  0.23003027876889837  -3.791582671846794 
H  4.872273071836267  0.06749352019155719  -4.372271544284816 
H  3.272377709039105  -0.010630404494996304  -4.300966071200474 
C  4.032700406311221  1.6934135608717171  -3.4078548238688855 
H  3.9190853688801717  2.239298393371579  -4.226839306576677 
H  4.891379739363981  1.9514137626235875  -2.988159530966928 
C  2.889145020173686  2.003439121771306  -2.4375098952868797 
H  2.0220599917862847  1.852256080807798  -2.890924299195126 
H  2.9321514344623827  2.9564116694072182  -2.171250413235355 
C  2.9732173411617273  1.113247425753776  -1.1772143866123685 
H  3.8338514269315405  1.3086430320633475  -0.7066184692415403 
C  1.2869488833962281  3.204732794561742  -0.12918474466159913 
C  0.3823584966018563  3.7369166455681415  -1.0583854231198329 
H  -0.15988518868310542  3.1595200033550728  -1.5815864870805947 
C  0.2828311394113072  5.1072070341244125  -1.2072598876897258 
H  -0.33351126143643217  5.47176464073293  -1.833192317254702 
C  1.0727868518715193  5.953776876366758  -0.4522714211835999 
H  0.9901605975277123  6.894578006214591  -0.5545114630955476 
C  1.9733720476196366  5.440848476667069  0.4404347913974949 
H  2.525192135974805  6.024878562976728  0.9471137512654246 
C  2.081974387034234  4.075001596486848  0.6032942454541622 
H  2.7090262916159995  3.724822317453436  1.2260833923538539 
C  2.139380524535293  1.1990367685790182  1.7111859703146481 
C  3.464494555388221  1.0601568824338732  2.090398816169158 
H  4.146179839857496  1.0280622753522137  1.43099401702501 
C  3.7933269682432593  0.9711112037682876  3.4257524777011628 
H  4.703022717543131  0.8749084363264958  3.67905299337829 
C  2.817493492968814  1.019962103224934  4.399556717862485 
H  3.0559924224686212  0.971403185826226  5.318573383744306 
C  1.4810826584261743  1.1399789658290258  4.0290443644817 
H  0.8029819911899515  1.1601958591872896  4.693560957439897 
C  1.143259121162912  1.2310992409062398  2.7036639537539506 
H  0.23021142467639977  1.3153852085858238  2.454667428491022 
Br  -1.654629867976521  1.654629867976521  0.0 
C  -1.35204078  -1.31992066  -0.4819701 
C  -1.63807002  -1.59921746  -1.81393823 
H  -1.15796809  -1.15933936  -2.50351594 
C  -2.63068217  -2.5263265  -2.14228996 
H  -2.83682226  -2.69439953  -3.05388981 
C  -3.31015444  -3.19615732  -1.16198741 
H  -3.99601236  -3.81199015  -1.38686634 
C  -2.99747104  -2.9701089  0.1242356 
H  -3.43865917  -3.46858118  0.80170842 
C  -2.03898543  -2.01594063  0.49125628 
H  -1.86191301  -1.84921651  1.41015686 
