23

Fe  0.0  0.0  0.0 
F  4.723182714401348  3.573414071543275  -0.05226010913486086 
F  4.654593904715234  -3.61516825655025  0.08831740474020544 
N  1.3208647678698977  1.323713059918954  0.0 
N  1.3208647678698977  -1.323713059918954  0.0 
C  1.2662579636186477  2.639983362567986  0.08688139785757744 
H  0.43198046135723933  3.044367591452737  0.15449932927934903 
C  2.3865965023412516  3.441662043644815  0.08203671419114576 
H  2.3206769291060465  4.367773447331545  0.13880208942887987 
C  3.577641547811164  2.8274565827953326  -0.006331897455168982 
C  3.6784825663554472  1.4665054034587026  -0.084138236793197 
H  4.510509157377543  1.0576396935191639  -0.14612947059128983 
C  2.5364846689248424  0.7161215286778524  -0.07065555408670275 
C  2.535771668462732  -0.7226258121670018  -0.0322180614239129 
C  3.6701936654138376  -1.5065709558853362  -0.023325116245249182 
H  4.512322908588484  -1.1145490776455222  -0.07001381692799605 
C  3.5483813136359426  -2.8566443170331204  0.05646467303549822 
C  2.3348117443329857  -3.451803603327564  0.09059082721904574 
H  2.2569286809639664  -4.377607780310628  0.13939712108540997 
C  1.2258403271598681  -2.6544162450245308  0.05166748317483788 
H  0.3833975914306492  -3.0481388846061837  0.06383547799463286 
I  -1.7606958851545036  1.7606958851545036  0.0 
I  -1.7606958851545036  -1.7606958851545036  0.0 
