67

Pd  0.0  0.0  0.0 
P  1.4331252195813178  1.5614903473925157  3.99296235876049e-15 
N  1.4331252195813178  -1.5614903473925157  1.6653345369377348e-16 
C  1.3606648862310702  2.7401838071845823  1.3869618192056403 
C  0.6024502905059123  2.4434795875436146  2.52242447507617 
H  0.13048996269519497  1.6201913987010057  2.5740473099950165 
C  0.5353775131572183  3.349649790492883  3.577772273588885 
H  0.01374937958471567  3.146765683313472  4.344465269069968 
C  1.2319052855262873  4.552412995616876  3.5105755867774264 
H  1.1879426670442987  5.1683019677171025  4.231948494656251 
C  1.9923057468614669  4.851745047704489  2.385382131857646 
H  2.4638301614881035  5.675176487512671  2.337808921471618 
C  2.0658494673020344  3.9513127924889098  1.3294487982843837 
H  2.5938564903446686  4.156413781768029  0.567670597090359 
C  1.2481302055460906  2.6027525349654805  -1.4903192951555466 
C  0.3754223054511421  3.6901349692119236  -1.4938538112679893 
H  -0.10535281282684283  3.910710716333991  -0.7041766269538201 
C  0.2020355730245713  4.454676682193712  -2.6441611702504946 
H  -0.4033878450423436  5.1856983864944315  -2.6419514875893872 
C  0.9132227772307012  4.14830365158301  -3.7912837864899007 
H  0.7942981292614327  4.672267079449362  -4.575267354151852 
C  1.7915291381552552  3.0876033771523943  -3.80080030803359 
H  2.2857433230282553  2.8894969780212314  -4.587827984861811 
C  1.9587055713838257  2.3009500033091395  -2.6566959030101516 
H  2.5550065477944086  1.5619314260076669  -2.6722206553457637 
C  3.1567053566349097  1.0473917707727476  -0.12640025582212458 
C  4.367342644048727  1.9539771828208639  -0.19074362366110453 
H  4.610932677803528  2.286928251566287  0.7089344861518525 
H  4.20168638189182  2.728061330710994  -0.786314899658715 
C  5.467044898388241  1.0484685561674243  -0.7589939108205963 
H  6.3456385247261595  1.2669589653907094  -0.35774397519957735 
H  5.5306859897965595  1.1452584948643736  -1.742532811551737 
C  5.029223950651794  -0.38016595555091026  -0.37531850158711505 
H  5.254536401220833  -1.0265745111244362  -1.0914403689392522 
H  5.457612654500441  -0.6701735279679865  0.46811627144258156 
C  3.5261678858454877  -0.24849678427276212  -0.2090422694192196 
C  2.7235566759016683  -1.463010932994095  -0.10751149463534851 
H  3.204076310781409  -2.282782276529802  -0.12211337166206013 
C  0.9868565084789387  -2.9494818541086247  0.10745359358797224 
C  0.7151813982343873  -3.654957130878356  -1.069323835809916 
C  0.35584458151652254  -5.003832488012115  -0.9418581813443099 
H  0.1588703472761217  -5.512990470530305  -1.719131794612758 
C  0.2842712084634522  -5.607795014309394  0.31469743186923166 
H  0.06413676758323228  -6.529352424128126  0.3846408257427327 
C  0.5311695727718883  -4.87344095511536  1.4556376070962602 
H  0.4676308135350076  -5.293958937244733  2.3044921604683144 
C  0.8754158953470657  -3.5125936731911476  1.3805933223508478 
C  0.7977394020284875  -2.991198592933669  -2.405913409806012 
H  1.0616013178959727  -2.0544857099866403  -2.289686372177909 
H  -0.07716923635262285  -3.0312833876328615  -2.844774348737758 
H  1.4625393990678366  -3.453011543749643  -2.960048675237783 
C  1.1162810260290326  -2.695788957023798  2.624118044448614 
H  1.3419867585873304  -1.7756261859895037  2.3724932104341416 
H  1.85733480592329  -3.0864705683566473  3.1335259201933976 
H  0.3061512226581131  -2.6944459548057553  3.1752929332409465 
Br  -1.654629867976521  1.654629867976521  0.0 
C  -1.352040782177733  -1.3199206589279684  -0.4819701001757076 
C  -1.6380700204479186  -1.599217458033982  -1.8139382277462257 
H  -1.1579680913617836  -1.159339363685303  -2.503515938957912 
C  -2.63068216563725  -2.52632649780156  -2.142289956238523 
H  -2.8368222554424674  -2.694399528648736  -3.0538898079700485 
C  -3.3101544432602585  -3.1961573187854975  -1.1619874135498987 
H  -3.9960123560788676  -3.811990145619169  -1.3868663427944008 
C  -2.9974710358883443  -2.9701089012107795  0.12423560353005347 
H  -3.438659168087169  -3.468581175155742  0.8017084178296768 
C  -2.0389854250767776  -2.015940632791841  0.4912562833419403 
H  -1.8619130127668426  -1.8492165108145995  1.4101568590026907 
