60

Pd  0.0  0.0  0.0 
P  1.512254027933138  -1.4849874595430097  5.189800262709586e-16 
N  1.5122540279331376  1.4849874595430097  -6.259477237603933e-16 
C  2.6135645077165597  1.4394621727363424  0.6436789769601076 
C  1.2465933854487035  2.706236493227173  -0.7234526596538801 
C  0.9738581722011054  2.6066973294112774  -2.083281008498568 
C  0.6775765904960414  3.753829292750705  -2.784604095974937 
C  0.6110982630619858  4.9677555070197155  -2.1472146480766385 
C  0.8745807410771705  5.04965102015585  -0.8014734735905592 
C  1.2097169662681408  3.9097433838173417  -0.0885721401776461 
C  2.402699483157704  -1.353617488203296  -1.5852790170503754 
C  1.661805328600425  -1.0825169159978651  -2.722707002240104 
C  2.289892595528242  -0.8650179041884356  -3.92685492711693 
C  3.645067039584332  -0.940962090972818  -4.002354640169198 
C  4.38993245709989  -1.2377935572369494  -2.888942694649978 
C  3.766524717766543  -1.4541123839958334  -1.6778012595859264 
C  1.1925232259419822  -3.2461006381046738  0.27950035161789166 
C  0.4125162714970776  -3.6192553616944125  1.37319657693839 
C  0.07398893154428987  -4.936261537357243  1.5683230573823703 
C  0.5124622377839438  -5.895777350668212  0.7189095928543621 
C  1.314100708934041  -5.569822618263297  -0.31337549082892174 
C  1.6482710838927221  -4.228942220786557  -0.5530300342087767 
C  2.7556880370350147  -1.0297465814765758  1.2587395353869664 
C  3.137593110277913  0.3074613338085079  1.4216923086995363 
C  4.115708049677714  0.6296404518377166  2.3526515834419395 
C  4.674650393667977  -0.3451638912544986  3.1533687112613085 
C  4.312604807733001  -1.6473626994485375  2.9945840531767334 
C  3.3640702262947193  -1.9937059137934432  2.0473662769008563 
H  3.1413824463714635  2.2056478214354502  0.6177921972911198 
H  0.9902758661681847  1.7810965863738304  -2.511887719156271 
H  0.5210792466932003  3.7054156549533017  -3.7007891215335778 
H  0.3886783110214693  5.732981824385185  -2.6258395828069503 
H  0.828064546966653  5.871064727834824  -0.3681583636271971 
H  1.407783870247505  3.9671565386908765  0.818002975957536 
H  0.7335835435609087  -1.0467383983689345  -2.67220100799841 
H  1.7902907706873012  -0.668447062378209  -4.6865348733875045 
H  4.070861420766434  -0.7901826459605995  -4.815643539586633 
H  5.316152602998827  -1.2918533437247794  -2.950781766569868 
H  4.270100198028503  -1.6676532782048568  -0.9259038183219157 
H  0.12013857329093192  -2.971847604934056  1.9738718370234025 
H  -0.46229441680610117  -5.170817602300167  2.2912950918903507 
H  0.25909975401024443  -6.7807618881163805  0.8488046285319305 
H  1.6480071655244473  -6.236613663289843  -0.8683654101244493 
H  2.181771566627102  -4.008301307023668  -1.2826589618809656 
H  4.397324575330268  1.5111055790939572  2.437546824242171 
H  5.299692182751323  -0.11243491244793288  3.8026901989106325 
H  4.70247173998197  -2.3053926401866995  3.5224397268517738 
H  3.1331527782023874  -2.8875631861023185  1.9375389628707826 
Br  -1.654629867976521  1.654629867976521  0.0 
C  -1.352040782177733  -1.3199206589279684  -0.4819701001757076 
C  -1.6380700204479186  -1.599217458033982  -1.8139382277462257 
H  -1.1579680913617836  -1.159339363685303  -2.503515938957912 
C  -2.63068216563725  -2.52632649780156  -2.142289956238523 
H  -2.8368222554424674  -2.694399528648736  -3.0538898079700485 
C  -3.3101544432602585  -3.1961573187854975  -1.1619874135498987 
H  -3.9960123560788676  -3.811990145619169  -1.3868663427944008 
C  -2.9974710358883443  -2.9701089012107795  0.12423560353005347 
H  -3.438659168087169  -3.468581175155742  0.8017084178296768 
C  -2.0389854250767776  -2.015940632791841  0.4912562833419403 
H  -1.8619130127668426  -1.8492165108145995  1.4101568590026907 
