62

Pd  0.0  0.0  0.0 
P  1.5023398700027895  1.4950166938867273  1.411440523301387e-16 
C  2.3310564382945005  -1.6301113994013021  -1.200517367629804 
H  1.765000181388245  -1.7331520447866784  -2.0068436225761888 
H  2.9274962004815954  -2.416946198510994  -1.1270816883436294 
C  3.1631483236090894  -0.3110780246814  -1.274534600546508 
H  4.123951712464912  -0.5023701160469483  -1.415107264120098 
H  2.8399967254323837  0.27421293800687163  -2.0060032967948715 
C  2.9226723549100857  0.34661410278490346  0.11146255455416124 
H  3.7431591525343713  0.7720583353482287  0.4933900737287373 
C  2.4241608174426816  -0.8194572441963801  0.9289661085288017 
H  3.1686842892681257  -1.4163302782225866  1.1936592915791582 
H  1.9512162999356786  -0.5114083328476392  1.742203344258292 
N  1.5023398700027897  -1.4950166938867273  -2.0122792321330962e-16 
C  0.9607392571208444  -2.7901812749363537  0.5447459353868205 
H  0.3961831442244912  -2.5830204410363504  1.3316151712127249 
H  0.37199711605105334  -3.1927363115863985  -0.14165309127060274 
C  2.528859367349214  -3.8303116436195923  2.2318541079828402 
H  2.342307158795205  -3.125657331525457  2.8424725354240437 
C  3.3598705489975664  -4.879802988041248  2.6108454587541154 
H  3.7443536895679426  -4.8846602515284685  3.480250273330513 
C  3.6330742598194465  -5.921654096707206  1.7320289934072874 
H  4.180227063931138  -6.649082482254315  2.001799549348902 
C  3.1009095560492397  -5.882115969647014  0.46706205527423217 
H  3.3152584700013286  -6.5733689631592735  -0.14983951065659737 
C  2.2751607570083743  -4.877174923741989  0.07856974500554273 
H  1.8981945517927288  -4.889416355610166  -0.7939496000356755 
C  1.9701942155288605  -3.8140511362290033  0.9521770143217334 
C  2.124723465436877  2.101913381870296  2.6618797813292003 
H  2.705912043563602  1.3516581007175743  2.626758423760115 
C  2.007460687313623  2.8033016735781935  3.8296829518686293 
H  2.500275129191932  2.5347321842595543  4.596881156561091 
C  1.1862309727874574  3.8879757488784286  3.893977635559133 
H  1.0862912992693639  4.357161703703055  4.713954276355943 
C  0.4812825495495816  4.317791200189159  2.747116101463134 
H  -0.07266634614633127  5.089400955262169  2.7763377857653078 
C  0.6210824098432077  3.5800075423141173  1.57311073382874 
H  0.1615442834359906  3.8517385113803266  0.7865416263572473 
C  1.421622544932926  2.457233277074254  1.544365970381544 
C  1.2774187281948084  2.7581604686164276  -2.4802898428065685 
H  0.5738845043135582  2.144597380156695  -2.6545225099719985 
C  1.6291539909735373  3.681571341314413  -3.4693377916448114 
H  1.1512717694131078  3.7260105708371825  -4.290229622031696 
C  2.6968255468899835  4.534338447670616  -3.218602371323226 
H  2.9631064870298296  5.161718401911491  -3.8799547387757034 
C  3.3742090105921356  4.478354133018984  -2.0208403041262852 
H  4.105523811945346  5.063178756433017  -1.8607526057533679 
C  2.9899840007483265  3.581713884464297  -1.0642293714674957 
H  3.4645388794868945  3.5491692278066456  -0.2418583770930087 
C  1.9147918541812816  2.7116547872522663  -1.2661552868898556 
Br  -1.654629867976521  1.654629867976521  0.0 
C  -1.352040782177733  -1.3199206589279684  -0.4819701001757076 
C  -1.6380700204479186  -1.599217458033982  -1.8139382277462257 
H  -1.1579680913617836  -1.159339363685303  -2.503515938957912 
C  -2.63068216563725  -2.52632649780156  -2.142289956238523 
H  -2.8368222554424674  -2.694399528648736  -3.0538898079700485 
C  -3.3101544432602585  -3.1961573187854975  -1.1619874135498987 
H  -3.9960123560788676  -3.811990145619169  -1.3868663427944008 
C  -2.9974710358883443  -2.9701089012107795  0.12423560353005347 
H  -3.438659168087169  -3.468581175155742  0.8017084178296768 
C  -2.0389854250767776  -2.015940632791841  0.4912562833419403 
H  -1.8619130127668426  -1.8492165108145995  1.4101568590026907 
