129

Fe  0.0  0.0  0.0 
O  0.21539787128663498  -2.129912693489278  0.001090370779326201 
O  2.0806151119814467  0.5760886444433345  -0.0010739124156390542 
O  3.6712857094979934  4.440259369931393  -0.24478697008274716 
O  1.5922614823869716  5.230218694058341  -0.42289870274039715 
O  -4.279695614981139  -3.5114422144052257  0.43985868384533183 
O  -2.695607945990665  -5.035073959892704  0.3983803630607455 
O  -5.957890544113528  2.4273538465249325  0.17115610381531768 
O  -4.419251894759541  4.650223748004455  0.24682246232794672 
N  -1.8926559890135628  -0.33362917344289234  -0.0013381438294682232 
N  -0.403356994254519  1.8874532224888356  0.0013216854657810764 
C  -0.6369970112690301  -3.0560438301083  0.10921595506756268 
C  -2.0407606679710106  -2.767992783841031  0.1896778147715146 
C  -2.5448430197795977  -1.447126284423776  0.13753183398362825 
H  -3.488112840722306  -1.363291468665798  0.2139963915612215 
C  -2.5920499688226686  0.9161925036748165  0.01822550648065422 
C  -3.9912654192163313  1.0189140189249657  0.041085814535788114 
H  -4.521577790286972  0.2304652817637205  0.012524337713441365 
C  -4.6033002955614215  2.247087882827271  0.1017505502933094 
C  -3.8325146085921213  3.405163095180634  0.10666962500092783 
C  -2.45968079055183  3.316609664336919  0.09235711541228311 
H  -1.9380627177892646  4.110949519032331  0.12012240687378298 
C  -1.8188265274704232  2.0732760021895986  0.037755667979842346 
C  0.38899304831438875  2.9192797093734755  -0.08983362707469575 
H  -0.02933975161404853  3.771823271001703  -0.09658522172280268 
C  1.82130463056848  2.909364246770666  -0.18268552496672716 
C  2.5866643785589445  1.7326089487031768  -0.1969783422560599 
C  2.481355463321687  4.2143559948185905  -0.2932490619426377 
C  2.1431468359464017  6.556689982933312  -0.4797112631832971 
H  2.5952979340822884  6.759471418548415  0.3660374488017631 
H  1.4223162176498811  7.204385883687323  -0.628547078337806 
H  2.7886388363493424  6.611600733513563  -1.2148218921953686 
C  4.065814711217042  1.7173304801601592  -0.4846644764308255 
H  4.559617319831178  1.922820139558124  0.33552964303503746 
H  4.273174521396447  2.3900832436244137  -1.166594178360261 
H  4.3267447400141  0.8303116596679891  -0.8096712489212536 
C  -3.0868933527795783  -3.771975672602451  0.3463855837221786 
C  -3.7405646011504046  -6.023970901661595  0.5598211181305264 
H  -4.239574452699211  -5.8407563732858465  1.3833087893492826 
H  -3.3412869898675535  -6.916796613047937  0.6110781977950446 
H  -4.350004206501128  -5.984130493565164  -0.2060127863896801 
C  -0.07611391297016798  -4.444658647521223  0.14178617004909347 
H  0.8942201573904457  -4.408657630200631  0.005250575242145707 
H  -0.4863635294726917  -4.980110955239757  -0.5689150810532437 
H  -0.26782492228658816  -4.854926318154979  1.0120579306731146 
C  -6.784093275235584  1.2676402542206953  0.33810708737413475 
H  -6.468205474344152  0.7209637591232602  1.0995902434294458 
H  -6.7714220320863845  0.7104119521910595  -0.48033924502294006 
C  -8.178847316361487  1.7901888096414882  0.6026593733037995 
H  -8.141876082812116  2.4305936635133607  1.3564302410263342 
H  -8.755044312880338  1.0342648634140184  0.8802100150298562 
C  -8.811600776141187  2.4761140975536575  -0.5932633618841494 
H  -9.023180270911817  1.7981391434080516  -1.2832721509179346 
H  -8.163805303492031  3.1154881468345006  -0.9834355811943847 
C  -10.08380024298404  3.220416910750124  -0.21478739325128002 
H  -10.707560309654575  2.5834006871955957  0.21531175828880603 
H  -9.856911604851206  3.914236451271361  0.45471117364571284 
C  -10.794832880035868  3.882511586510137  -1.3770451268789672 
H  -11.07901999165022  3.185093010646575  -2.0203341176387437 
H  -10.160850429960211  4.482758261412215  -1.8441459428331533 
C  -12.014710827768681  4.687062423043061  -0.9499381565900802 
H  -12.632036255197793  4.092363671124082  -0.4554412798401141 
H  -11.723968664532519  5.402196111484662  -0.3288673134709807 
C  -12.76675286174517  5.319243297264562  -2.1086386663858825 
H  -13.067166776134007  4.60561161343538  -2.723809406812233 
H  -12.148251404667231  5.909121379054853  -2.6084532582255697 
C  -13.977353731583708  6.134065731376156  -1.6654883140057588 
H  -14.595414315287748  5.544065314165456  -1.164987672085467 
H  -13.67608172148245  6.848591942843951  -1.0494267918709743 
C  -14.728830391328604  6.764113375973497  -2.820851207384282 
H  -15.047553225121334  6.0454902058287825  -3.423251335663065 
H  -14.102853513134065  7.3319478379869985  -3.335580788538944 
C  -15.917947227194851  7.609026563662116  -2.395586682730157 
H  -16.557753154922715  7.03782856922041  -1.8997108555414701 
H  -15.605650719370587  8.31708223963369  -1.7791344940527145 
C  -16.640769414960772  8.257516641916313  -3.564180142098795 
H  -15.991756260489524  8.793481367835952  -4.084791040844838 
H  -16.99026810259921  7.547076423535961  -4.15793757863891 
C  -17.788966773783308  9.152920448896827  -3.1375214287953423 
H  -18.458553284399798  8.619388934427553  -2.6603360582436544 
H  -18.199139935008994  9.558907952099164  -3.9307564097774366 
H  -17.451777270439983  9.857839530376749  -2.547916224102755 
C  -5.290746588371592  5.063188745489825  -0.8224886102126618 
H  -5.596362484665329  4.270219433426588  -1.3302216936911084 
H  -4.800015101575836  5.65861796147663  -1.4431260459322324 
C  -6.478350077317118  5.790403686543981  -0.25263676757984593 
H  -6.164346563563771  6.521699697225753  0.33575703601726775 
H  -7.015423004086328  5.165299835287121  0.294537296567383 
C  -7.349650329309303  6.3727129828520575  -1.3584887849454386 
H  -6.792811534170708  6.971578066772565  -1.9164844726433656 
H  -7.663191982028826  5.631248695150026  -1.9351743509798494 
C  -8.562294416590737  7.153497603561108  -0.8703318494773409 
H  -9.145914248308745  6.547173277502748  -0.34770600467503615 
H  -8.258491196627325  7.875538524252296  -0.2667134829681023 
C  -9.36794237980985  7.762503556100235  -1.999328531993638 
H  -9.676967790529396  7.034605293010882  -2.596670732178023 
H  -8.774148338980284  8.350402773358473  -2.530058131151671 
C  -10.58045755841253  8.571433810066774  -1.551829888559115 
H  -11.186564365842528  7.981539021349443  -1.0368947021218784 
H  -10.276663706970286  9.293749460655636  -0.9456494065735292 
C  -11.356818074887782  9.188102700160762  -2.698222687057314 
H  -11.659788411594349  8.464273042445363  -3.30295762212186 
H  -10.75073647991336  9.775314224215274  -3.2151652237582904 
C  -12.56982322008779  9.999545023412256  -2.259027623612234 
H  -13.172875372036827  9.414030278271415  -1.7356832577762302 
H  -12.265103902132294  10.727505073393006  -1.65981092416473 
C  -13.354791237830558  10.608076794277288  -3.4070538885421153 
H  -13.668073877823197  9.879731235411654  -4.001069540154053 
H  -12.74945462711716  11.186972623133489  -3.936369953916017 
C  -14.559097630194369  11.433046219830091  -2.9655852370902442 
H  -15.16313683324164  10.85672396255494  -2.433378935970753 
H  -14.246145874964625  12.16528342929694  -2.377280589844596 
C  -15.34546992137389  12.031632345207585  -4.11410359139314 
H  -15.673994333927906  11.297815914224692  -4.692624149347283 
H  -14.738033146186144  12.593062093857412  -4.657416633276459 
C  -16.533514011056617  12.877877285617684  -3.671508006462319 
H  -17.11036432370712  12.348423018193841  -3.081919950696512 
H  -17.044515092876807  13.162556905403513  -4.458778270385189 
H  -16.20958942509145  13.667274456255283  -3.187984253584916 
P  0.0  0.0  2.27 
H  0.8983688990563866  -0.8900192527607542  3.056540450913622 
H  -0.898368899056387  0.8900192527607541  3.06004811304338 
C  -1.1772968763501022e-16  1.8144226687588952e-16  -1.91 
H  0.9239249834599568  -0.21997400172537768  -1.708734022985896 
H  -0.5267325489940757  -0.7877123178756206  -1.7070793601005028 
C  -0.08480214248783596  0.21586009536431958  -3.314424866576627 
H  -0.9637049191108419  0.5321551840851988  -3.5366345560490258 
H  0.08414530908124129  -0.6094554893601137  -3.7752179158072776 
H  0.5671693180515555  0.8691265295115942  -3.5785176356155377 
129

Fe  0.0  0.0  0.0 
O  0.21539787128663498  2.129912693489278  -0.0010903707793264619 
O  2.0806151119814467  -0.5760886444433345  0.0010739124156391247 
O  3.6712857094979934  -4.440259369931393  0.24478697008274772 
O  1.5922614823869716  -5.230218694058341  0.4228987027403978 
O  -4.279695614981139  3.5114422144052257  -0.4398586838453323 
O  -2.695607945990665  5.035073959892704  -0.3983803630607461 
O  -5.957890544113528  -2.4273538465249325  -0.17115610381531737 
O  -4.419251894759541  -4.650223748004455  -0.24682246232794613 
N  -1.8926559890135628  0.33362917344289234  0.0013381438294681825 
N  -0.403356994254519  -1.8874532224888356  -0.0013216854657808453 
C  -0.6369970112690301  3.0560438301083  -0.10921595506756306 
C  -2.0407606679710106  2.767992783841031  -0.18967781477151494 
C  -2.5448430197795977  1.447126284423776  -0.13753183398362842 
H  -3.488112840722306  1.363291468665798  -0.21399639156122166 
C  -2.5920499688226686  -0.9161925036748165  -0.01822550648065411 
C  -3.9912654192163313  -1.0189140189249657  -0.04108581453578799 
H  -4.521577790286972  -0.2304652817637205  -0.012524337713441337 
C  -4.6033002955614215  -2.247087882827271  -0.10175055029330912 
C  -3.8325146085921213  -3.405163095180634  -0.10666962500092741 
C  -2.45968079055183  -3.316609664336919  -0.09235711541228271 
H  -1.9380627177892646  -4.110949519032331  -0.12012240687378248 
C  -1.8188265274704232  -2.0732760021895986  -0.03775566797984209 
C  0.38899304831438875  -2.9192797093734755  0.08983362707469611 
H  -0.02933975161404853  -3.771823271001703  0.09658522172280314 
C  1.82130463056848  -2.909364246770666  0.18268552496672752 
C  2.5866643785589445  -1.7326089487031768  0.19697834225606012 
C  2.481355463321687  -4.2143559948185905  0.2932490619426382 
C  2.1431468359464017  -6.556689982933312  0.4797112631832979 
H  2.5952979340822884  -6.759471418548415  -0.36603744880176226 
H  1.4223162176498811  -7.204385883687323  0.6285470783378069 
H  2.7886388363493424  -6.611600733513563  1.2148218921953695 
C  4.065814711217042  -1.7173304801601592  0.4846644764308257 
H  4.559617319831178  -1.922820139558124  -0.33552964303503724 
H  4.273174521396447  -2.3900832436244137  1.1665941783602611 
H  4.3267447400141  -0.830311659667989  0.8096712489212538 
C  -3.0868933527795783  3.771975672602451  -0.34638558372217904 
C  -3.7405646011504046  6.023970901661595  -0.5598211181305272 
H  -4.239574452699211  5.8407563732858465  -1.3833087893492833 
H  -3.3412869898675535  6.916796613047937  -0.6110781977950455 
H  -4.350004206501128  5.984130493565164  0.20601278638967938 
C  -0.07611391297016798  4.444658647521223  -0.14178617004909402 
H  0.8942201573904457  4.408657630200631  -0.005250575242146246 
H  -0.4863635294726917  4.980110955239757  0.5689150810532432 
H  -0.26782492228658816  4.854926318154979  -1.0120579306731152 
C  -6.784093275235584  -1.2676402542206953  -0.3381070873741346 
H  -6.468205474344152  -0.7209637591232603  -1.0995902434294458 
H  -6.7714220320863845  -0.7104119521910593  0.4803392450229402 
C  -8.178847316361487  -1.7901888096414882  -0.6026593733037993 
H  -8.141876082812116  -2.4305936635133607  -1.356430241026334 
H  -8.755044312880338  -1.0342648634140184  -0.8802100150298561 
C  -8.811600776141187  -2.4761140975536575  0.5932633618841497 
H  -9.023180270911817  -1.7981391434080514  1.2832721509179348 
H  -8.163805303492031  -3.1154881468345006  0.983435581194385 
C  -10.08380024298404  -3.220416910750124  0.2147873932512804 
H  -10.707560309654575  -2.5834006871955957  -0.21531175828880572 
H  -9.856911604851206  -3.914236451271361  -0.45471117364571234 
C  -10.794832880035868  -3.882511586510137  1.3770451268789676 
H  -11.07901999165022  -3.1850930106465745  2.020334117638744 
H  -10.160850429960211  -4.482758261412215  1.8441459428331537 
C  -12.014710827768681  -4.687062423043061  0.9499381565900807 
H  -12.632036255197793  -4.092363671124082  0.4554412798401146 
H  -11.723968664532519  -5.402196111484662  0.32886731347098136 
C  -12.76675286174517  -5.319243297264562  2.108638666385883 
H  -13.067166776134007  -4.60561161343538  2.7238094068122334 
H  -12.148251404667231  -5.909121379054853  2.6084532582255706 
C  -13.977353731583708  -6.134065731376156  1.6654883140057595 
H  -14.595414315287748  -5.544065314165456  1.1649876720854677 
H  -13.67608172148245  -6.848591942843951  1.0494267918709752 
C  -14.728830391328604  -6.764113375973497  2.820851207384283 
H  -15.047553225121334  -6.0454902058287825  3.423251335663066 
H  -14.102853513134065  -7.3319478379869985  3.335580788538945 
C  -15.917947227194851  -7.609026563662116  2.395586682730158 
H  -16.557753154922715  -7.03782856922041  1.899710855541471 
H  -15.605650719370587  -8.31708223963369  1.7791344940527156 
C  -16.640769414960772  -8.257516641916313  3.5641801420987957 
H  -15.991756260489524  -8.793481367835952  4.084791040844839 
H  -16.99026810259921  -7.54707642353596  4.157937578638911 
C  -17.788966773783308  -9.152920448896827  3.1375214287953437 
H  -18.458553284399798  -8.619388934427553  2.6603360582436553 
H  -18.199139935008994  -9.558907952099164  3.930756409777438 
H  -17.451777270439983  -9.857839530376749  2.547916224102756 
C  -5.290746588371592  -5.063188745489825  0.8224886102126625 
H  -5.596362484665329  -4.270219433426588  1.3302216936911089 
H  -4.800015101575836  -5.65861796147663  1.443126045932233 
C  -6.478350077317118  -5.790403686543981  0.25263676757984665 
H  -6.164346563563771  -6.521699697225753  -0.335757036017267 
H  -7.015423004086328  -5.165299835287121  -0.29453729656738237 
C  -7.349650329309303  -6.3727129828520575  1.3584887849454395 
H  -6.792811534170708  -6.971578066772565  1.9164844726433665 
H  -7.663191982028826  -5.631248695150026  1.93517435097985 
C  -8.562294416590737  -7.153497603561108  0.8703318494773418 
H  -9.145914248308745  -6.547173277502748  0.34770600467503693 
H  -8.258491196627325  -7.875538524252296  0.26671348296810327 
C  -9.36794237980985  -7.762503556100235  1.999328531993639 
H  -9.676967790529396  -7.034605293010882  2.596670732178024 
H  -8.774148338980284  -8.350402773358473  2.530058131151672 
C  -10.58045755841253  -8.571433810066774  1.5518298885591162 
H  -11.186564365842528  -7.981539021349443  1.0368947021218793 
H  -10.276663706970286  -9.293749460655636  0.9456494065735304 
C  -11.356818074887782  -9.188102700160762  2.6982226870573154 
H  -11.659788411594349  -8.464273042445363  3.302957622121861 
H  -10.75073647991336  -9.775314224215274  3.2151652237582917 
C  -12.56982322008779  -9.999545023412256  2.2590276236122353 
H  -13.172875372036827  -9.414030278271415  1.7356832577762313 
H  -12.265103902132294  -10.727505073393006  1.6598109241647314 
C  -13.354791237830558  -10.608076794277288  3.4070538885421167 
H  -13.668073877823197  -9.879731235411654  4.001069540154054 
H  -12.74945462711716  -11.186972623133489  3.936369953916018 
C  -14.559097630194369  -11.433046219830091  2.9655852370902456 
H  -15.16313683324164  -10.85672396255494  2.4333789359707545 
H  -14.246145874964625  -12.16528342929694  2.3772805898445974 
C  -15.34546992137389  -12.031632345207585  4.114103591393142 
H  -15.673994333927906  -11.297815914224692  4.692624149347285 
H  -14.738033146186144  -12.593062093857412  4.657416633276461 
C  -16.533514011056617  -12.877877285617684  3.6715080064623207 
H  -17.11036432370712  -12.348423018193841  3.081919950696513 
H  -17.044515092876807  -13.162556905403513  4.45877827038519 
H  -16.20958942509145  -13.667274456255283  3.1879842535849177 
P  0.0  0.0  2.27 
H  0.8983688990563866  -0.8900192527607542  3.056540450913622 
H  -0.898368899056387  0.8900192527607541  3.06004811304338 
C  -1.1772968763501022e-16  1.8144226687588952e-16  -1.91 
H  0.9239249834599568  -0.21997400172537768  -1.708734022985896 
H  -0.5267325489940757  -0.7877123178756206  -1.7070793601005028 
C  -0.08480214248783596  0.21586009536431958  -3.314424866576627 
H  -0.9637049191108419  0.5321551840851988  -3.5366345560490258 
H  0.08414530908124129  -0.6094554893601137  -3.7752179158072776 
H  0.5671693180515555  0.8691265295115942  -3.5785176356155377 
100

Fe  0.0  0.0  0.0 
C  -1.134737758668204  2.403792765673823  0.3773749097341377 
C  -2.273490256858106  3.066209072434266  0.9127187846445641 
H  -2.308108014375396  3.9640251755452267  1.2221720215950318 
C  -3.308081876770303  2.170382274747018  0.8998572702366829 
H  -4.198610726114918  2.3353381215139555  1.186729152968956 
C  -2.795978112044525  0.9298084675481988  0.36942964742098505 
C  -3.3438110357620294  -0.36973518949177925  0.4377804421368454 
C  -2.5770933854198934  -1.5437397425632018  0.28325146743824603 
C  -3.016324626911748  -2.8825661093386423  0.5327429625325655 
H  -3.906730560888329  -3.1474018313528993  0.7280523404038786 
C  -1.9471496763846126  -3.706067168592531  0.4444611944656516 
H  -1.958035896671741  -4.650157272516955  0.5534830999701335 
C  -0.7794385754617081  -2.889170519766091  0.151790492280502 
C  0.5524050211344553  -3.3199944337593594  0.11626459556677649 
C  1.686600463394063  -2.494798289465415  0.09339098194885076 
C  3.056148840260612  -2.8893967525320505  0.3429723041018591 
H  3.3738556902104024  -3.7815690671044773  0.41866813361355426 
C  3.8083308227349133  -1.7677117536125542  0.44979593650592187 
H  4.744195634595596  -1.7374741194633003  0.6153903790516326 
C  2.9442699961587055  -0.6309325544811999  0.26824660326915484 
C  3.2692118047223957  0.7236864896273814  0.47418872228737574 
C  2.305038021609176  1.7675567593516768  0.43189550837702284 
C  2.389875506065711  3.0729507335162793  1.0278351223026558 
H  3.172518730772251  3.4923857284239137  1.3668278624428838 
C  1.1130655508176628  3.6025689165256503  1.0135505710205936 
H  0.8435323429090786  4.450754809064213  1.3469208179429433 
C  0.2792929926868214  2.6216408906705038  0.39918152932018414 
C  -4.769593086718426  -0.5089027136266172  0.8759954959594525 
C  -5.817554107324882  -0.26474757949188765  -0.03225618158654742 
C  -7.12994559734397  -0.35485912036638195  0.41281898861137023 
H  -7.833528361434607  -0.17181990281996035  -0.19794535949235792 
C  -7.448231239809639  -0.6985516509901677  1.7085379065073905 
C  -6.40505017751316  -0.9386981672640657  2.589986170438692 
H  -6.606779889332538  -1.1788489312682766  3.486304352736398 
C  -5.071271967829468  -0.8380882517638535  2.201676767673316 
C  -5.528078441059901  0.0828210424198701  -1.4577332637252982 
H  -6.33813156036451  0.4419482476819085  -1.8768297375180858 
H  -5.2420138183054785  -0.7206435436015648  -1.9381832409526631 
H  -4.817819276738068  0.7558548616248884  -1.4919368849247903 
C  -8.884637046488976  -0.7859598617938315  2.1866618477841033 
H  -9.480305276154338  -0.41762244697631695  1.5007668711201207 
H  -8.985294089138318  -0.2730307019009961  3.015830616308773 
H  -9.117370559320916  -1.7230234934958801  2.3533501861472637 
C  -3.985230205334005  -1.0670671343043867  3.231940569554287 
H  -3.5377311695061877  -1.9194789238638088  3.050836030811391 
H  -4.386237165957557  -1.0921378612275034  4.127073105094699 
H  -3.332474638713623  -0.33875284835651354  3.1872309382614317 
C  0.8028615319557459  -4.791085985899469  0.33001290879807343 
C  0.5591971968282785  -5.362661521092994  1.552055665560342 
H  0.20057244399692967  -4.8264255537484635  2.2490641403888256 
C  0.821474086339921  -6.710531452041905  1.8003912700794642 
H  0.6496632149069459  -7.085307669512924  2.6561984628954365 
C  1.3346738050665918  -7.4888508677117525  0.7809756551852189 
C  1.5675112668133409  -6.9435578148618875  -0.46409903451054624 
H  1.9030894545242805  -7.485977329640972  -1.169509269706678 
C  1.3117358877074567  -5.601510567479059  -0.6770245173335616 
H  1.4878562794475  -5.225881160361178  -1.531250539017286 
C  1.5187236214529969  -9.399083893162103  2.2035823378515538 
H  2.1062037611602165  -8.909360708815711  2.81699832897276 
H  1.7966549592437082  -10.338800858818704  2.1677519606413878 
H  0.5936024118864041  -9.342970146261955  2.521000839232408 
C  4.668042068907633  1.0522453394001243  0.9023963637832597 
C  5.523649169447056  1.7813810701358  0.05446333242342827 
C  6.856964129533898  1.973544799466925  0.4430993167817707 
H  7.436589434311095  2.4539848329436342  -0.1366061086670849 
C  7.359162187771984  1.494286701672431  1.6341312542210231 
C  6.4741784917575105  0.8459846745939263  2.487726263270667 
H  6.792846254827771  0.5397691391039636  3.329213121518846 
C  5.141864641201379  0.6282060135361112  2.1590585459570253 
C  5.023925084453906  2.3713756178336816  -1.239303108076761 
H  4.4398873669833785  1.7262016699726106  -1.689679319230475 
H  5.787455854857323  2.5816709630248873  -1.8188439008067268 
H  4.521950740376398  3.191970624689055  -1.0521725317083206 
C  8.810587481310353  1.6702252775129862  2.010285510887421 
H  9.289763062030529  0.8255326720800007  1.8716199954615675 
H  8.8758645317853  1.9304997607241399  2.953006827115317 
H  9.210829717717207  2.3675656331411705  1.4509686859944135 
C  4.227330325884228  -0.0030227460083845498  3.170537957132214 
H  4.0935776902866845  -0.9472814117718718  2.944567108124489 
H  3.3634865500829143  0.4607430258110496  3.164777757651839 
H  4.629657425472714  0.0658060994436254  4.061092500644547 
N  -1.493523727859929  1.1377018410628932  -0.009167001226360494 
N  -1.2050212636500837  -1.5824349999629668  0.008089424785459931 
N  1.6629691243269553  -1.1139130786871565  -0.008063709750346426 
N  1.0355758671830573  1.5586462375872303  0.009141286191246989 
O  1.6092534733616082  -8.832207879412023  0.912644918396907 
P  0.00508600543819504  0.00018264403277462593  3.3816585880618604 
F  -1.5665568384594897  -0.14980118592162678  3.379814143047303 
F  -0.007476892665621349  -0.0015895476651651697  4.95662502990366 
F  -0.14702433190830275  1.5585064732507774  3.3604581502438124 
F  0.0  0.0  1.7999999999999998 
F  1.5624020627520128  0.14378341550519952  3.3532810253569423 
F  0.15356999484320832  -1.55108179920196  3.416071696697973 
N  0.0  0.0  -1.8699999999999999 
N  -0.4538992598058027  0.29830444412126583  -3.2338425167757627 
H  0.7506602570833187  0.561537890640887  -1.8900396060387568 
H  0.45035873581133434  -0.7958998175480545  -1.9325845788145093 
H  0.3003517489806596  0.3701364830995625  -3.846776831299615 
H  -1.04747148206951  -0.4340790003136606  -3.492870637400838 
100

Fe  0.0  0.0  0.0 
C  -1.134737758668204  -2.403792765673823  -0.3773749097341374 
C  -2.273490256858106  -3.066209072434266  -0.9127187846445638 
H  -2.308108014375396  -3.9640251755452267  -1.2221720215950314 
C  -3.308081876770303  -2.170382274747018  -0.8998572702366827 
H  -4.198610726114918  -2.3353381215139555  -1.1867291529689559 
C  -2.795978112044525  -0.9298084675481988  -0.36942964742098494 
C  -3.3438110357620294  0.3697351894917792  -0.43778044213684547 
C  -2.5770933854198934  1.5437397425632018  -0.2832514674382462 
C  -3.016324626911748  2.8825661093386423  -0.5327429625325658 
H  -3.906730560888329  3.1474018313528993  -0.7280523404038789 
C  -1.9471496763846126  3.706067168592531  -0.444461194465652 
H  -1.958035896671741  4.650157272516955  -0.553483099970134 
C  -0.7794385754617081  2.889170519766091  -0.15179049228050237 
C  0.5524050211344553  3.3199944337593594  -0.11626459556677689 
C  1.686600463394063  2.494798289465415  -0.09339098194885107 
C  3.056148840260612  2.8893967525320505  -0.3429723041018594 
H  3.3738556902104024  3.7815690671044773  -0.4186681336135547 
C  3.8083308227349133  1.7677117536125542  -0.4497959365059221 
H  4.744195634595596  1.7374741194633003  -0.6153903790516329 
C  2.9442699961587055  0.6309325544811999  -0.2682466032691549 
C  3.2692118047223957  -0.7236864896273815  -0.47418872228737563 
C  2.305038021609176  -1.7675567593516768  -0.4318955083770226 
C  2.389875506065711  -3.0729507335162793  -1.0278351223026554 
H  3.172518730772251  -3.4923857284239137  -1.3668278624428833 
C  1.1130655508176628  -3.6025689165256503  -1.0135505710205932 
H  0.8435323429090786  -4.450754809064213  -1.3469208179429428 
C  0.2792929926868214  -2.6216408906705038  -0.3991815293201838 
C  -4.769593086718426  0.5089027136266171  -0.8759954959594526 
C  -5.817554107324882  0.26474757949188765  0.03225618158654738 
C  -7.12994559734397  0.3548591203663819  -0.4128189886113703 
H  -7.833528361434607  0.17181990281996037  0.1979453594923579 
C  -7.448231239809639  0.6985516509901675  -1.7085379065073905 
C  -6.40505017751316  0.9386981672640654  -2.589986170438692 
H  -6.606779889332538  1.1788489312682762  -3.486304352736398 
C  -5.071271967829468  0.8380882517638533  -2.201676767673316 
C  -5.528078441059901  -0.08282104241986991  1.4577332637252982 
H  -6.33813156036451  -0.44194824768190827  1.8768297375180858 
H  -5.2420138183054785  0.720643543601565  1.9381832409526631 
H  -4.817819276738068  -0.7558548616248881  1.4919368849247903 
C  -8.884637046488976  0.7859598617938313  -2.1866618477841033 
H  -9.480305276154338  0.4176224469763168  -1.5007668711201207 
H  -8.985294089138318  0.2730307019009957  -3.015830616308773 
H  -9.117370559320916  1.72302349349588  -2.3533501861472637 
C  -3.985230205334005  1.0670671343043863  -3.231940569554287 
H  -3.5377311695061877  1.9194789238638084  -3.0508360308113915 
H  -4.386237165957557  1.092137861227503  -4.127073105094699 
H  -3.332474638713623  0.33875284835651315  -3.1872309382614317 
C  0.8028615319557459  4.791085985899469  -0.33001290879807404 
C  0.5591971968282785  5.362661521092994  -1.5520556655603426 
H  0.20057244399692967  4.8264255537484635  -2.249064140388826 
C  0.821474086339921  6.710531452041905  -1.800391270079465 
H  0.6496632149069459  7.085307669512924  -2.6561984628954374 
C  1.3346738050665918  7.4888508677117525  -0.7809756551852198 
C  1.5675112668133409  6.9435578148618875  0.4640990345105454 
H  1.9030894545242805  7.485977329640972  1.1695092697066771 
C  1.3117358877074567  5.601510567479059  0.677024517333561 
H  1.4878562794475  5.225881160361178  1.5312505390172853 
C  1.5187236214529969  9.399083893162103  -2.203582337851555 
H  2.1062037611602165  8.909360708815711  -2.816998328972761 
H  1.7966549592437082  10.338800858818704  -2.167751960641389 
H  0.5936024118864041  9.342970146261955  -2.5210008392324093 
C  4.668042068907633  -1.0522453394001243  -0.9023963637832596 
C  5.523649169447056  -1.7813810701358  -0.05446333242342805 
C  6.856964129533898  -1.973544799466925  -0.4430993167817705 
H  7.436589434311095  -2.4539848329436342  0.1366061086670852 
C  7.359162187771984  -1.4942867016724313  -1.634131254221023 
C  6.4741784917575105  -0.8459846745939267  -2.487726263270667 
H  6.792846254827771  -0.5397691391039641  -3.329213121518846 
C  5.141864641201379  -0.6282060135361114  -2.1590585459570253 
C  5.023925084453906  -2.3713756178336816  1.2393031080767611 
H  4.4398873669833785  -1.7262016699726104  1.6896793192304753 
H  5.787455854857323  -2.581670963024887  1.818843900806727 
H  4.521950740376398  -3.191970624689055  1.052172531708321 
C  8.810587481310353  -1.6702252775129864  -2.010285510887421 
H  9.289763062030529  -0.8255326720800009  -1.8716199954615675 
H  8.8758645317853  -1.9304997607241403  -2.9530068271153165 
H  9.210829717717207  -2.3675656331411705  -1.4509686859944133 
C  4.227330325884228  0.0030227460083841616  -3.170537957132214 
H  4.0935776902866845  0.9472814117718714  -2.944567108124489 
H  3.3634865500829143  -0.46074302581105  -3.164777757651839 
H  4.629657425472714  -0.06580609944362589  -4.061092500644547 
N  -1.493523727859929  -1.1377018410628932  0.009167001226360633 
N  -1.2050212636500837  1.5824349999629668  -0.008089424785460125 
N  1.6629691243269553  1.1139130786871565  0.008063709750346289 
N  1.0355758671830573  -1.5586462375872303  -0.009141286191246798 
O  1.6092534733616082  8.832207879412023  -0.9126449183969081 
P  0.00508600543819504  0.00018264403277462593  3.3816585880618604 
F  -1.5665568384594897  -0.14980118592162678  3.379814143047303 
F  -0.007476892665621349  -0.0015895476651651697  4.95662502990366 
F  -0.14702433190830275  1.5585064732507774  3.3604581502438124 
F  0.0  0.0  1.7999999999999998 
F  1.5624020627520128  0.14378341550519952  3.3532810253569423 
F  0.15356999484320832  -1.55108179920196  3.416071696697973 
N  0.0  0.0  -1.8699999999999999 
N  -0.4538992598058027  0.29830444412126583  -3.2338425167757627 
H  0.7506602570833187  0.561537890640887  -1.8900396060387568 
H  0.45035873581133434  -0.7958998175480545  -1.9325845788145093 
H  0.3003517489806596  0.3701364830995625  -3.846776831299615 
H  -1.04747148206951  -0.4340790003136606  -3.492870637400838 
48

Fe  0.0  0.0  0.0 
O  0.9129791840866528  -1.0999136078069647  0.5886608322374935 
O  1.5453689365228935  1.186563126557157  -0.5495454734141708 
N  -1.444535060829504  -1.103122576997017  -0.6318687116630829 
N  -1.0138130597800423  1.0164730582468247  0.5927533528397604 
C  0.9008957633580548  -2.404542350374367  0.3714068449081529 
C  1.993266483723818  -3.194664869404366  0.7952569412975166 
C  2.0241372697174076  -4.555873105550011  0.5766292613907804 
C  0.9572717946904059  -5.2079413642250945  -0.02638652134119157 
C  -0.14529654263605646  -4.48631749136442  -0.3706641094045495 
C  -0.20782796119003027  -3.0818550686435797  -0.21671416669999477 
C  -1.4143182222950281  -2.3621911415822896  -0.4692325461212101 
C  -2.6750966146583126  -0.3321641648243887  -0.4835545217192736 
C  -2.3758380172192433  0.5531909311574732  0.7488338001491828 
C  -0.628044314589478  2.1010102560372  1.2081203017760016 
C  0.6398810553595949  2.7083671472554682  1.0942033454912181 
C  1.6932958861127465  2.2153555193824483  0.26530364761981295 
C  2.8989010435496407  2.909863110000876  0.2710439381130656 
C  3.1271679504130794  3.9861762345669467  1.1032988432459956 
C  2.0979547830430314  4.475366109309996  1.898359899115917 
C  0.891355373066583  3.853587996304439  1.887076635769911 
H  2.7511385044379923  -2.7710720480035502  1.2427836576802507 
H  2.7982735021823246  -5.076542153729618  0.8643711002894117 
H  0.9839211980871472  -6.159196737355837  -0.19894240906597416 
H  -0.9171261372407495  -4.941316005699497  -0.7463904178329428 
H  -3.436541730260302  -0.9033034033001601  -0.3435537852955319 
H  -2.8528965725497897  0.20207378691250985  -1.2633715809695527 
H  -2.998424589059679  1.2973220159241996  0.7893361364752511 
H  -2.49029176324558  0.04911080524802117  1.5576744375331173 
H  3.6068280579655823  2.60925352386344  -0.3090556731455625 
H  4.005892701371283  4.412109084465011  1.11410159433807 
H  2.24791201337288  5.241066955790386  2.461322644571612 
H  0.1692605753679894  4.211034515906654  2.432531811527638 
H  -2.2459688697595905  -2.8541712265064523  -0.5211945188492351 
H  -1.2764669622370926  2.5311680825309613  1.7858824451566662 
O  -0.7790361280835649  -0.424660368180784  3.0351715970629236 
C  0.0  0.0  1.91 
H  0.854381314015068  -0.4484367903911474  1.9133667915843426 
H  0.2097305533218835  0.9718194131326618  1.9708807298066036 
C  -0.17552902606650678  -0.0836232000541266  4.267752271003222 
H  0.7518621873216629  -0.3977537673628704  4.2747361103989014 
H  -0.6698124959470628  -0.5068349388844734  5.000760719466833 
H  -0.19159640456147664  0.8894896517407386  4.381531781548693 
F  0.0  0.0  -1.7999999999999998 
F  -1.1630522838928354  0.5613747104523586  -3.6878138863235934 
F  0.1002608271284634  -1.3057968698219375  -3.6266913590715713 
F  1.0598384744465028  0.7894175666946711  -3.631043804357715 
B  0.0029529823178690018  -0.0449954073250921  -3.233511685761605 
48

Fe  0.0  0.0  0.0 
O  0.9129791840866528  1.0999136078069647  -0.5886608322374937 
O  1.5453689365228935  -1.186563126557157  0.5495454734141709 
N  -1.444535060829504  1.103122576997017  0.6318687116630828 
N  -1.0138130597800423  -1.0164730582468247  -0.5927533528397603 
C  0.9008957633580548  2.404542350374367  -0.3714068449081532 
C  1.993266483723818  3.194664869404366  -0.795256941297517 
C  2.0241372697174076  4.555873105550011  -0.576629261390781 
C  0.9572717946904059  5.2079413642250945  0.026386521341190933 
C  -0.14529654263605646  4.48631749136442  0.37066410940454897 
C  -0.20782796119003027  3.0818550686435797  0.21671416669999438 
C  -1.4143182222950281  2.3621911415822896  0.46923254612120985 
C  -2.6750966146583126  0.33216416482438876  0.48355452171927354 
C  -2.3758380172192433  -0.5531909311574733  -0.7488338001491827 
C  -0.628044314589478  -2.1010102560372  -1.2081203017760014 
C  0.6398810553595949  -2.7083671472554682  -1.094203345491218 
C  1.6932958861127465  -2.2153555193824483  -0.2653036476198127 
C  2.8989010435496407  -2.909863110000876  -0.27104393811306526 
C  3.1271679504130794  -3.9861762345669467  -1.1032988432459951 
C  2.0979547830430314  -4.475366109309996  -1.8983598991159165 
C  0.891355373066583  -3.8535879963044395  -1.8870766357699105 
H  2.7511385044379923  2.7710720480035502  -1.2427836576802511 
H  2.7982735021823246  5.076542153729618  -0.8643711002894123 
H  0.9839211980871472  6.159196737355837  0.1989424090659734 
H  -0.9171261372407495  4.941316005699497  0.7463904178329422 
H  -3.436541730260302  0.9033034033001601  0.34355378529553177 
H  -2.8528965725497897  -0.20207378691250968  1.2633715809695527 
H  -2.998424589059679  -1.2973220159241996  -0.789336136475251 
H  -2.49029176324558  -0.049110805248021354  -1.5576744375331173 
H  3.6068280579655823  -2.60925352386344  0.3090556731455628 
H  4.005892701371283  -4.412109084465011  -1.1141015943380697 
H  2.24791201337288  -5.241066955790386  -2.4613226445716117 
H  0.1692605753679894  -4.211034515906654  -2.4325318115276375 
H  -2.2459688697595905  2.8541712265064523  0.5211945188492347 
H  -1.2764669622370926  -2.5311680825309613  -1.785882445156666 
O  -0.7790361280835649  -0.424660368180784  3.0351715970629236 
C  0.0  0.0  1.91 
H  0.854381314015068  -0.4484367903911474  1.9133667915843426 
H  0.2097305533218835  0.9718194131326618  1.9708807298066036 
C  -0.17552902606650678  -0.0836232000541266  4.267752271003222 
H  0.7518621873216629  -0.3977537673628704  4.2747361103989014 
H  -0.6698124959470628  -0.5068349388844734  5.000760719466833 
H  -0.19159640456147664  0.8894896517407386  4.381531781548693 
F  0.0  0.0  -1.7999999999999998 
F  -1.1630522838928354  0.5613747104523586  -3.6878138863235934 
F  0.1002608271284634  -1.3057968698219375  -3.6266913590715713 
F  1.0598384744465028  0.7894175666946711  -3.631043804357715 
B  0.0029529823178690018  -0.0449954073250921  -3.233511685761605 
