81

Fe  0.0  0.0  0.0 
N  1.542808773014257  1.2435734609572486  -0.027752763160662053 
N  1.2385426650776603  -1.5350369266191415  0.027784518134839675 
N  -1.5411095124507619  -1.2427345682065707  -0.027804628539184695 
N  -1.2402419256411554  1.5341980338684633  0.027772873565007072 
C  1.5071609857756223  2.6087807848955435  -0.20529083775377382 
C  2.843410905883322  3.1202959143893763  -0.24763258206210986 
C  3.672830780351436  2.0944944131221033  -0.07195221367933796 
C  2.8812679468246545  0.9202317620609373  0.03821932031132608 
C  3.385231419272281  -0.3620002229955821  0.1450691913292511 
C  2.6011378443077167  -1.505515806453906  0.1471895892298351 
C  3.1234473232440516  -2.831630278859112  0.15678303963704293 
C  2.092033601607808  -3.6678218399307236  -0.005786969937582265 
C  0.9217673539884201  -2.878714445832738  -0.08194417749355715 
C  -0.3568595910934639  -3.3894315296047317  -0.22361402486411536 
C  -1.5042285304672278  -2.6178381468507954  -0.16501002627475597 
C  -2.8501882629921624  -3.1490059885211346  -0.1499670080709387 
C  -3.6836626592548285  -2.106671110475058  0.03367645841576722 
C  -2.8811368055635063  -0.9121969107703569  0.08634913061710076 
C  -3.3783316346846086  0.3466164415698784  0.2143694644128519 
C  -2.60150635073835  1.499461097318563  0.16266368201366282 
C  -3.126009934818529  2.8314782542790224  0.1908405138089871 
C  -2.094946004006944  3.6618163480247063  0.005570223006208075 
C  -0.9163213490911729  2.8664787840085033  -0.0785646216745321 
C  0.3611321643727965  3.376033416965296  -0.26412619358754535 
C  0.33441706151652273  5.369404385975955  -1.8002406304655036 
C  0.4340902118459672  6.74295593156993  -2.0282762081717083 
C  0.6862901222187973  7.609225375247834  -0.9651089371565058 
C  0.8366431857215383  7.102990392875363  0.32707298460129525 
C  0.7376444573038096  5.732322398704906  0.5551254819092735 
C  0.48588603902052585  4.864174692823826  -0.5099145453183034 
C  5.549178655526716  -0.6984838952114298  -1.1005546832970081 
C  6.883859146865458  -1.1029520507337425  -1.1373784148861772 
C  7.5625189986720525  -1.3747097835615734  0.04966623052280145 
C  6.9070914131639745  -1.2406872028318507  1.2750923392742013 
C  5.572329553937587  -0.8361794586070854  1.3119586384742778 
C  4.8930766481069226  -0.5658071102731652  0.12342436333662002 
C  -0.41131013236695046  -5.757520340390674  0.6244259994186099 
C  -0.5040395828582936  -7.1319009689309505  0.40018852060472315 
C  -0.7145326860457936  -7.61576012434644  -0.8909814996602716 
C  -0.8322963387419494  -6.7235544426722536  -1.95948038767652 
C  -0.7394855203629617  -5.350751158466491  -1.7338553339575413 
C  -0.5289924171754622  -4.866892003051  -0.4426853136925472 
C  -5.643512086199369  0.7124238980600257  -0.8339578923090822 
C  -6.993072211905934  1.0454437914896435  -0.7297632298593888 
C  -7.5785381669975145  1.207027845224265  0.5252982542948286 
C  -6.8119211070959595  1.0363420147059137  1.6800551294543382 
C  -5.461326435275778  0.7029024700257005  1.5754092384963772 
C  -4.876674401445435  0.5399567960232365  0.3188836770126771 
Cl  -4.968074738824111  0.4184443152145953  -2.3661749509012067 
Cl  -4.540154162953641  0.4969063590514838  2.989840525964372 
Cl  -0.8973487887099586  -4.288059594079702  -3.0453120879101685 
Cl  -0.1645439339917537  -5.1742495198800205  2.2169022483090863 
Cl  4.790576711149225  -0.6228254199012666  2.816952966357353 
Cl  4.73995715623796  -0.38005344624568055  -2.557082099537542 
Cl  0.8819681693470701  5.144832833988008  2.148620247351195 
Cl  0.024775373044171878  4.347427341733542  -3.1121804788585354 
H  3.0963456392804347  4.038063513746954  -0.3797157157725097 
H  4.6302173449183615  2.1402192814078287  -0.028953929911350318 
H  4.045386994713956  -3.0793932111851112  0.2602630451220976 
H  2.137305284719568  -4.625992513854172  -0.05825890854588439 
H  -3.102499951679495  -4.069390898330645  -0.25270297814319126 
H  -4.638948169316261  -2.151057660689683  0.11443367745353578 
H  -4.045283282841098  3.0802056123586636  0.31731874497189466 
H  -2.1407490305635974  4.6181677935111125  -0.059916382298330795 
H  0.3307653152733133  7.089403133990436  -2.915634530205855 
H  0.7550189135843325  8.554060963427352  -1.12138969267969 
H  1.0098127876609895  7.700846312222659  1.0577248570176552 
H  7.335882364298241  -1.1954810673815908  -1.9797259452914708 
H  8.481774281144407  -1.653143766373342  0.026190650396944626 
H  7.3737885556413545  -1.4278489138521742  2.092466140623004 
H  -0.42256194416485215  -7.743982988782322  1.1336380998994458 
H  -0.7785166737583266  -8.560598426075424  -1.0451202777217687 
H  -0.9777579651479241  -7.056383951008537  -2.84700064300817 
H  -7.52060450687463  1.1640963114150173  -1.5235941988196706 
H  -8.508232260283759  1.4386332536073019  0.5956286724394497 
H  -7.214815458787102  1.1478936941932814  2.542709871618851 
N  -2.7755575615628914e-16  -2.220446049250313e-16  3.0571743285133257 
C  0.0  0.0  1.91 
N  5.551115123125783e-17  0.0  -3.0571743285133257 
C  1.4381348794049646e-16  1.1700572471067312e-16  -1.9099999999999997 
