69

Fe  0.0  0.0  0.0 
N  3.182768987532474  -2.122756888793052  -0.5810469903751994 
C  3.103728452813174  -3.545211094707937  -0.559795027022534 
C  1.8862119538619013  -4.199380366378202  -0.5090983921849869 
H  1.0767078089868396  -3.70322467682727  -0.4555764232717891 
C  1.8586960756006827  -5.594678721248034  -0.5375820250476593 
H  1.0244623611245314  -6.049233371073107  -0.4999681984177588 
C  3.0205798315905783  -6.317032926329404  -0.6195346331093055 
H  2.9910405642474265  -7.266149848784847  -0.650368854253012 
C  4.234008605353653  -5.659733080767262  -0.6591936047026073 
H  5.039545064775909  -6.160065307102094  -0.7198052853617296 
C  4.283998307118167  -4.2663670452085825  -0.6105185528897392 
H  5.121421014876455  -3.8162317686532803  -0.6125731407517934 
N  4.405582152425736  -1.53804638894028  -0.941224245522828 
C  4.2171472065674305  -0.2453464339764857  -0.881475457953653 
C  5.354283887906472  0.6493661609267698  -1.2639170619597835 
H  5.719229010953724  1.0752115673994216  -0.4606596455917926 
H  5.034638535572355  1.3386338580805792  -1.8820366461758802 
H  6.0545543464006  0.11987682555497914  -1.6985272881257094 
C  2.8799770366386146  0.08113324938983979  -0.4787727350902963 
C  2.244496504364055  1.3282516510775069  -0.2826221672296497 
O  1.0306999781701751  1.463474480474464  -4.2504822600073455e-16 
C  3.0396685382852784  2.5940681376071644  -0.3986736596772507 
C  3.9096478728492565  2.983604458606202  0.6017214382986196 
H  4.020672620527104  2.435867832040552  1.3695722462825428 
C  4.626224936945237  4.175623932314025  0.4902055402708292 
H  5.2319119380147745  4.437006529075115  1.1734646967011184 
C  4.443175064821082  4.971335320204073  -0.6268135784095276 
H  4.933011372741868  5.781572007498799  -0.7116322202532486 
C  3.5575568560680013  4.600494972633372  -1.6204487805529795 
H  3.431707170653694  5.156215342787235  -2.3795508137983097 
C  2.851624805504307  3.406567792274527  -1.5023865597229258 
H  2.2388723120075844  3.1497855285495286  -2.181115180564734 
C  2.225192642915961  -1.1816842883651337  -0.3184104450226623 
O  1.0306999781701751  -1.463474480474464  -2.220446049250313e-16 
N  -3.2598250414781518  -2.1227568887930524  0.004251848293063069 
C  -3.1779773348075944  -3.5452110947079376  0.004181223751816371 
C  -1.9888254499189446  -4.199380366378204  0.2703284925114178 
H  -1.1930519850099561  -3.7032246768272694  0.4281453302474142 
C  -1.9696192591319766  -5.594678721248034  0.30496320245673264 
H  -1.1540761944674012  -6.049233371073107  0.4845466092623987 
C  -3.1131236819505386  -6.317032926329404  0.08340569886978597 
H  -3.0925714244070264  -7.266149848784846  0.12083459437278568 
C  -4.295470370048096  -5.659733080767262  -0.1923451527494617 
H  -5.0892462975317425  -6.160065307102094  -0.34228694224896206 
C  -4.331158683600396  -4.2663670452085825  -0.2522999292671183 
H  -5.140578671013595  -3.81623176865328  -0.4670562953579451 
N  -4.534192591419789  -1.5380463889402798  0.03566902540559847 
C  -4.336714286495177  -0.2453464339764857  0.026726681154073617 
C  -5.5340871457775345  0.64936616092677  0.10182427349578183 
H  -5.678698747831241  1.075211567399421  -0.7685175583942099 
H  -5.385314565250725  1.3386338580805794  0.7816122484877485 
H  -6.322981870752359  0.11987682555497936  0.3403821839378254 
C  -2.9408799510259156  0.08113324938984001  -0.01616917265602889 
C  -2.276285390127981  1.3282516510775066  -0.041161607449350615 
O  -1.0306999781701751  1.4634744804744637  0.0 
C  -3.0743989304933086  2.594068137607164  -0.13487014022654337 
C  -3.655813134103079  2.9836044586062025  -1.3263448224851944 
H  -3.5643203923387334  2.435867832040551  -2.096767067830523 
C  -4.376835865081083  4.175623932314026  -1.4040925280100256 
H  -4.7850440996368855  4.437006529075115  -2.2208335245023503 
C  -4.489129087755562  4.971335320204073  -0.2777581197086984 
H  -4.984227308119221  5.7815720074987995  -0.32260856847368496 
C  -3.8908593018881206  4.6004949726333715  0.9112346430664969 
H  -3.965767903896012  5.156215342787235  1.677043197172083 
C  -3.178424551385527  3.4065677922745277  0.9799039540918684 
H  -2.7622189863240476  3.149785528549528  1.7940974732555415 
C  -2.266901979692414  -1.181684288365134  -0.0015965786638879702 
O  -1.0306999781701751  -1.4634744804744637  0.0 
