71

Pd  0.0  0.0  0.0 
N  1.9178342317595212  -0.010176513042852942  4.805184028455755e-16 
C  0.23800950382672825  -2.050055086248992  -5.126107871511464e-15 
C  -0.678899846217492  -3.0940150545013436  0.02500836836010986 
C  -0.2212879210077856  -4.407080255021748  0.009968917300481307 
C  1.0965569425382005  -4.681727641744972  0.0022127203222783525 
C  2.0469604395136085  -3.6777600227077034  0.01578043426209239 
C  1.6081214931776084  -2.3451224582263226  0.01323074568425051 
C  2.541581007243831  -1.191996097351643  0.013864350584250151 
C  3.929419171019364  -1.2027904682363646  -0.00344035182167481 
C  4.612887059030948  0.011475637356888502  -0.00932430154783805 
C  3.9109083546404557  1.2126903901870587  -0.027484317114999005 
C  2.5435999302001377  1.20482565837162  0.006775257430018812 
C  1.6083000395518727  2.3423759394634245  0.0023647539102092745 
C  2.054393486619835  3.6560451999011434  0.023946011149786423 
C  1.1311012175852182  4.696163333648076  0.02300590918465015 
C  -0.21344803305785032  4.421522569141329  0.016133277497168284 
C  -0.6750520707942111  3.1004926469232474  -0.008680971433164614 
C  0.2441562644137506  2.060231599291845  4.643854745189912e-15 
H  -1.6110745783217013  -2.9114055694880725  0.051888748000895345 
H  -0.843275904470284  -5.122150629338209  0.004207129108272569 
H  1.3815876844629036  -5.58780776964255  -0.00932018854594065 
H  2.9740381837102827  -3.8861734572140154  0.022921619912030875 
H  4.404994504800979  -2.026440188249116  -0.016043947396900533 
H  5.562574811162853  0.017814627492752866  -0.004028014668826648 
H  4.380407000664244  2.03622967666424  -0.060783341282149024 
H  2.985742154378551  3.8447499015572966  0.041558354461421726 
H  1.4264499094373018  5.598802710447  0.020155352517284373 
H  -0.8390085890705172  5.136380374877056  0.02989984351145722 
H  -1.6064459214112017  2.918411339159296  -0.031112921767997306 
N  -1.9939834970964054  1.0304257447302234e-15  -0.006016502903594567 
N  -0.006016502903594345  4.440892098500626e-16  -1.9939834970964054 
C  -2.3303015273358723  -0.017308901963712403  -1.431219588238691 
C  0.7937728786352725  0.06772052853273516  -4.400712799530083 
H  1.523669756972531  0.06670495902694579  -4.977364232903901 
C  -2.9457888192366903  0.06385310045651696  0.9678610716958724 
H  -2.6950777223489206  0.07579280465815026  1.8631653603937997 
C  -1.5673727816142609  -0.022296083691195286  -3.9068055707830656 
C  0.9823912758047503  0.08883022920941498  -2.98284676538351 
H  1.8600595938855158  0.16974924550661116  -2.6846849699790853 
C  -3.7007242395748854  -0.014648102755975372  -1.8207296265266748 
C  -4.690813726189062  0.02554835070477996  -0.7867280483725387 
H  -5.590723045981724  -0.0034188518281486786  -1.0182055361067617 
C  -0.5082115358979523  0.04877565187811634  -4.897755177965908 
H  -0.6882699172541843  0.07979054636031263  -5.810355022160302 
C  -4.320398204875581  0.10954299259992005  0.6121214187621669 
H  -4.975073370555872  0.19277123763065626  1.2678365601693389 
C  -3.9803331123557077  -0.042018053202758296  -3.3436452328800996 
H  -4.864091960529508  -0.05048856296498934  -3.6301945632560364 
C  -2.94173127445839  -0.05739429404430304  -4.335368225219161 
H  -3.153686476186314  -0.09117895936124319  -5.239885996658665 
C  -1.2905711971911116  -0.02266211172877368  -2.455645414603067 
C  0.0  0.0  1.95 
N  0.04924882316448925  -0.04715868142740083  3.0977982192802624 
C  0.49090707129781963  1.1141135252472187  6.525845206102475 
H  0.8278256826753292  1.863437759382703  7.00235488223164 
C  -1.107465326694744  -2.2712498680283395  4.416837016738267 
H  -1.633566851552784  -1.9508655887638555  3.6556957689122003 
H  -1.681895217609429  -2.7918330306779247  5.016247469758147 
H  -0.3764386025604939  -2.8377987577601336  4.093896783652921 
C  1.162545047478134  2.238329058589544  4.358495644184914 
H  1.4213303516732627  2.95318487890668  4.976575001946803 
H  0.5072196697017344  2.5836849136806035  3.7161883403213025 
H  1.9543080244816187  1.9196514603683001  3.8766636541318267 
C  0.0357074937238826  -0.022677478650585704  4.492563447950515 
C  -0.568138809297923  -1.0586976819311553  6.556118969549433 
H  -0.9323498253540815  -1.7836045005136192  7.051354529819485 
C  -0.5483041171080154  -1.1160822675849047  5.1521907184215205 
C  0.5544989812679919  1.0979906447000802  5.134667154338716 
C  -0.0623256963259049  0.04185507111543803  7.22598710769837 
H  -0.09310669896088464  0.06772054334734974  8.174979919695913 
