100

Cr  0.0  0.0  0.0 
S  -0.01985  -2.16602  0.0 
N  0.55292  2.18797  0.0 
N  1.86693  -0.02195  0.0 
N  2.52252  -1.20838  -0.37713 
H  3.45716  -1.19912  0.09184 
N  0.0  3.39148  0.48703 
H  -0.90274  3.72649  0.11279 
N  2.28165  -3.62786  -0.40681 
C  0.90418  5.80391  0.40144 
H  0.16324  6.18845  -0.33401 
H  1.86239  6.33457  0.2124 
H  0.5437  5.99312  1.42893 
C  1.07047  4.32182  0.12908 
C  2.31918  3.56412  0.32315 
H  3.32438  3.92051  0.51196 
C  1.93445  2.32026  0.14811 
C  2.69015  1.12742  0.15589 
H  3.76398  1.08857  0.29587 
C  1.80119  -2.35711  0.18748 
C  3.74057  -3.82694  -0.21149 
H  4.32545  -2.98508  -0.63323 
H  4.06584  -4.71367  -0.79422 
C  4.09749  -4.03317  1.27325 
H  3.8197  -3.13639  1.86934 
H  5.19276  -4.19021  1.37636 
C  3.35625  -5.26022  1.80095 
H  3.58524  -5.416  2.8779 
H  3.69656  -6.15784  1.23844 
C  1.85213  -5.08285  1.60178 
H  1.32248  -6.00196  1.93057 
H  1.48834  -4.23448  2.22027 
C  1.55346  -4.81807  0.11484 
H  1.85126  -5.70604  -0.48269 
H  0.45823  -4.72492  -0.0283 
P  -1.20232  -0.05406  -2.23176 
O  0.38158  0.0  -1.82216 
N  -1.74158  0.0  -0.65784 
C  -3.14382  0.01111  -0.19232 
C  -3.48285  1.2772  0.60998 
C  -3.41771  -1.20693  0.68903 
C  -1.51746  1.66912  -3.06492 
C  -3.02394  1.90202  -3.22852 
C  -0.95865  2.76839  -2.25812 
C  -0.82765  1.7071  -4.42877 
C  -1.52119  -1.74023  -3.11659 
C  -1.30959  -3.0179  -2.35423 
C  -0.61176  -1.81901  -4.35806 
C  -3.00057  -1.73711  -3.54954 
H  -3.82539  -0.01131  -1.0638 
H  -4.56372  1.30938  0.85018 
H  -3.21955  2.20445  0.0659 
H  -3.00908  1.26397  1.59531 
H  -4.45968  -1.17522  1.07444 
H  -2.71991  -1.22043  1.55591 
H  -3.29496  -2.1401  0.11273 
H  -3.48553  1.13418  -3.86612 
H  -3.20524  2.88376  -3.70539 
H  -3.53776  1.90016  -2.25218 
H  0.14839  2.67183  -2.21011 
H  -1.51326  2.62938  -1.33867 
H  -1.17761  3.76885  -2.69205 
H  -1.29642  0.99685  -5.12034 
H  0.26435  1.48851  -4.33726 
H  -0.94274  2.71129  -4.8919 
H  -0.22429  -3.17877  -2.21781 
H  -1.6382  -3.91958  -2.9293 
H  -1.93573  -3.00445  -1.43629 
H  -0.80974  -1.02058  -5.08477 
H  -0.75956  -2.77823  -4.89646 
H  0.45331  -1.74399  -4.04397 
H  -3.1997  -0.92338  -4.26598 
H  -3.66481  -1.61989  -2.66629 
H  -3.27024  -2.68475  -4.06281 
N  0.0  0.0  1.93 
C  0.70413  -0.90944  2.82524 
H  1.28781  -1.76806  2.47412 
C  0.48458  -0.67846  4.29033 
H  0.92148  -1.38732  4.98465 
C  -0.2477  0.36754  4.71664 
C  -0.80432  1.32432  3.7642 
H  -1.33896  2.20377  4.11911 
C  -0.66297  1.12951  2.47143 
H  -1.08567  1.85759  1.82481 
C  -0.57241  0.61106  6.14587 
H  -0.98093  1.6032  6.45762 
N  0.31177  -0.06727  7.05534 
N  -0.17295  0.19752  8.333 
C  0.66941  -0.56191  9.22475 
H  1.04321  -1.54451  8.85609 
C  0.33249  -0.40536  10.66954 
C  0.81543  -1.35338  11.5585 
H  1.3981  -2.18986  11.19639 
C  0.57646  -1.19304  12.91966 
H  0.97321  -1.92299  13.6155 
N  -0.14667  -0.13556  13.36957 
C  -0.64522  0.79803  12.51752 
H  -1.22313  1.63011  12.91054 
C  -0.43399  0.6791  11.14524 
H  -0.82816  1.4423  10.48338 
