80

Co  0.0  0.0  0.0 
N  1.1649939517010375  -1.3982807631159067  1.7124000608592134e-16 
C  2.4291818237787712  -1.2915751043270984  0.0003556319149121051 
O  3.1502382703636913  -2.3676471884821155  0.15907532363781146 
C  2.221422134903001  -3.4949285840206605  0.17740267425258763 
H  2.2546151090894617  -3.9422007424435077  -0.6953679329314807 
C  0.8283501319474942  -2.804845533139115  0.3357250904405382 
H  0.2262238374588268  -3.153863607958717  -0.3550943642179045 
C  0.1483549816740799  -2.9551932533863208  1.6929558772344167 
C  0.17588181394925206  -1.9758223172172709  2.632049148902507 
H  0.5843929676268641  -1.165111435753164  2.4257550045438228 
C  -0.37623439350407883  -2.145624345724703  3.8765683751831777 
H  -0.30723695737289436  -1.4746883793960048  4.517381915063478 
C  -1.053522758195455  -3.329648226100983  4.175036299343197 
H  -1.4478525465112373  -3.454791144187096  5.007170572222115 
C  -1.1233831454557115  -4.289849735995251  3.2295334084493286 
H  -1.5626791424571294  -5.085204112838532  3.4205298017523793 
C  -0.5443518257836875  -4.120101219630712  1.9817287794985603 
H  -0.6270576486220663  -4.785578772169181  1.337632580211491 
C  2.598231838495549  -4.487966078082863  1.2446371577027762 
C  2.2394304136413274  -5.809945278369391  1.110541365328891 
H  1.870812558724782  -6.105852510246043  0.3092008402336956 
C  2.411451452037819  -6.7152353663050945  2.1634410894405325 
H  2.098754293938919  -7.590120340960642  2.09728416660677 
C  3.053578282145343  -6.2814702806377305  3.2962410428798394 
H  3.250107213799662  -6.892306578704715  3.969627422298565 
C  3.401804644154667  -4.965269891168848  3.4545135470103108 
H  3.8260522941984045  -4.691391686518  4.233723146829029 
C  3.1306832109235994  -4.056802429906417  2.478810364546423 
H  3.2862907097383207  -3.1535225105106397  2.627920503467215 
C  3.2312767849099115  -0.039975957600559865  -0.3087662522043697 
C  3.506489525501399  0.022847008514093492  -1.8037245534103623 
H  4.002410764991781  -0.7546620144787981  -2.070528382818789 
H  4.016399136500622  0.8114435186618888  -2.0016713967631885 
H  2.6741599745771767  0.05099146707927099  -2.2808165551357806 
C  4.561110357056938  -0.054701909314374964  0.46441685465767124 
H  4.396241662587407  0.15488826579962417  1.3871302240631547 
H  5.1558638181021035  0.599460358470596  0.08990584282857499 
H  4.959992362469977  -0.924639351126388  0.4000643637093494 
N  1.1649939517010375  1.3982807631159067  -1.7124000608592134e-16 
C  2.4426188562065065  1.2126137162336483  0.02804926183437347 
O  3.1861055979316815  2.281303752897002  0.33517483943316956 
C  2.2369413096538038  3.335760796784535  0.7457912984968 
H  2.136481893224044  3.2976519624176386  1.71911272659433 
C  0.8945923922088355  2.8381371875964545  0.09134097386321242 
H  0.1602246799570528  2.982650632485526  0.7243919571563391 
C  0.5456344738370265  3.455374667912459  -1.1914001863475308 
C  -0.29569880854862096  4.564402304496957  -1.2642637522911142 
H  -0.650410987253415  4.916251302193006  -0.47885813536518157 
C  -0.6110729489550675  5.1460561407319805  -2.4504123965832303 
H  -1.2188591574430148  5.85022170674169  -2.4616516322365407 
C  -0.06480546881398097  4.73027441052748  -3.6152681185370255 
H  -0.285311719018734  5.144702871739146  -4.418837022961777 
C  0.8135351332039034  3.689607873173865  -3.5877907664207984 
H  1.2182223853842313  3.4107507542851607  -4.378112444706223 
C  1.1198030360529667  3.03022711480211  -2.384215360734247 
H  1.706183939370146  2.3083782868522875  -2.3873974689053643 
C  2.7499859237869586  4.663216343597446  0.38879955469226923 
C  2.4585043964672213  5.73821327886988  1.1896714285811225 
H  1.9226400200354805  5.619589802544295  1.9398345647960917 
C  2.943951000335777  6.986669669780907  0.8945606446610748 
H  2.7296420605555163  7.7000969236730565  1.4496779311277934 
C  3.734291233768236  7.212177785402366  -0.17657483006040442 
H  4.047458368790904  8.066240858070847  -0.3725551184716921 
C  4.058093102030906  6.137001018577761  -0.9714123670390126 
H  4.6204530324058055  6.264981650022069  -1.7011031006267903 
C  3.5735144820807796  4.881705289493555  -0.716957825656488 
H  3.7918717414586474  4.174736963763927  -1.2809064968066566 
P  -2.354455850248356  2.3572209101855233  0.004698726628778238 
F  -2.8423140664426505  1.86675425483659  -1.4144547537540013 
F  -3.472415034247719  3.4666006285213298  -0.006444139099797241 
F  -1.345318777851165  3.336376035892184  -0.6844005252326655 
F  -1.2374368670764582  1.2374368670764582  0.0 
F  -1.8530078977877573  2.818536928601735  1.4126750233488927 
F  -3.3691606884251026  1.3911835569653863  0.6879256681087931 
S  -2.277038328533389  -2.2758899746417938  0.0026879687281248787 
O  -1.2303657992645927  -1.2303657992645927  7.957459505072666e-17 
O  -1.7317568210813974  -3.552185902659935  0.4976628082454432 
O  -3.419761132484793  -1.8788235215757878  0.885193937647894 
O  -2.7490608729398542  -2.4707177561619162  -1.3855447146214614 
