65

Cr  0.0  0.0  0.0 
N  0.21195  1.93025  0.0 
N  2.77691  0.82551  -0.82228 
N  2.82866  -0.89722  0.66982 
C  1.95457  0.01115  0.0 
N  0.23348  -1.9414  0.0 
C  1.09068  4.14743  -0.84562 
H  1.74489  4.70965  -1.5053 
C  1.32211  2.67914  -0.62337 
C  4.12581  0.4751  -0.58235 
H  4.98622  0.95426  -1.02626 
C  2.26004  1.93564  -1.56083 
H  1.69278  1.59913  -2.44273 
H  3.09558  2.57634  -1.91506 
C  -0.78124  -2.67068  -0.74871 
H  -1.52267  -2.13616  -1.35792 
C  2.33111  -1.96306  1.46999 
H  1.85344  -1.51234  2.35514 
H  3.15898  -2.61936  1.84128 
C  0.12086  4.77423  -0.17457 
H  -0.00965  5.84551  -0.28553 
C  4.15465  -0.59049  0.30721 
H  5.03266  -1.09583  0.67107 
C  -0.6637  -4.15296  -0.82723 
H  -1.39081  -4.70534  -1.41092 
C  1.28234  -2.68492  0.67558 
C  -0.76303  2.67764  0.73147 
H  -1.49694  2.16413  1.33389 
C  0.32213  -4.78629  -0.19227 
H  0.38255  -5.86698  -0.25189 
C  1.3276  -4.02979  0.57951 
H  2.10114  -4.58971  1.09211 
C  -0.79926  4.01766  0.69511 
H  -1.54878  4.55098  1.2709 
O  -1.92596  0.0  -0.07404 
O  -0.07404  0.0  -1.92596 
F  -2.0807  0.46448  -7.64929 
C  -2.53442  0.10605  -2.34224 
C  -1.12928  0.21185  -2.80249 
C  -2.85332  0.00022  -1.05618 
C  -0.70712  0.18941  -4.26435 
C  0.6742  0.0253  -4.59273 
C  -1.62964  0.31565  -5.31336 
C  0.16796  0.19348  -6.94166 
C  -1.1902  0.32426  -6.64394 
C  1.09052  0.03991  -5.91734 
C  -4.28468  -0.18882  -0.65633 
H  -2.68307  0.42404  -5.12316 
H  1.41923  -0.09402  -3.82746 
H  2.1504  -0.05838  -6.14109 
H  -3.32552  0.07683  -3.08018 
H  0.50609  0.20937  -7.96928 
H  -4.39676  -1.22519  -0.27212 
H  -4.55242  0.52944  0.14326 
H  -4.98298  -0.06095  -1.51181 
O  0.0  0.0  1.85 
S  -0.97549  0.29542  3.19165 
C  -0.09434  1.43605  4.28233 
H  0.99034  1.16712  4.25351 
H  -0.46195  1.42335  5.3208 
H  -0.15533  2.43882  3.8172 
C  -0.26145  -1.1845  4.066 
H  -0.50218  -2.13024  3.53094 
H  -0.6777  -1.27766  5.09007 
H  0.84118  -1.12615  4.18793 
