55

Pd  0.0  0.0  0.0 
P  1.6255219454070744  -1.3600655884919666  1.6655999695771482e-16 
N  1.6255219454070744  1.360065588491967  -1.6655999695771487e-16 
C  2.6087635900632353  -1.7279263550853958  -1.4764696659990078 
C  2.2071662641639587  -2.7915698126071855  -2.286627751252525 
C  2.8524338275354286  -3.035717111685741  -3.48920694948163 
C  3.909248246991054  -2.2331773524008534  -3.8879071847431974 
C  4.290032381246174  -1.167600227104326  -3.094553919706499 
C  3.6524175547476996  -0.9006923455495075  -1.9055206250535426 
C  1.2500383203190506  -2.9530598884229633  0.7571554316506821 
C  2.207650863515701  -3.964583719803338  0.7274708285367979 
C  2.003089167317342  -5.129124579745371  1.4531880034568412 
C  0.8532015477720983  -5.280639721179462  2.201179430100781 
C  -0.11606162163047418  -4.300065154567023  2.2040003789707874 
C  0.07920847042795542  -3.1280476956388537  1.4905264291204423 
C  2.649182339924878  -0.4525522005761951  1.269502389698161 
C  4.015769486839804  -1.0857119851383703  1.5277455059668348 
C  1.8314135721677942  -0.4596253778416143  2.5940283662816697 
C  2.6831142130402608  0.9636181049571068  0.7551227305818662 
C  3.7235801541112927  1.8236252324787436  1.0752523700767989 
C  3.699935116746302  3.118043442818162  0.5941662042502358 
C  2.669405392856243  3.5244697429004264  -0.20231026795755866 
C  1.6525161523524219  2.6331726905692197  -0.48394861238757503 
H  1.4790318390749988  -3.352278400084622  -2.020231732270586 
H  2.573118030474462  -3.755984687962108  -4.047848152828801 
H  4.372111176585285  -2.4214430670594473  -4.701005333241638 
H  5.0106285912854815  -0.614005781828465  -3.400758283223251 
H  3.9188231533268203  -0.12493263665938498  -1.3620068799574057 
H  3.0062785677466657  -3.858651273442608  0.1804162820399863 
H  2.6605752427224654  -5.851299600796425  1.4238487870684198 
H  0.7532862827257769  -6.087756303856299  2.7329816224418724 
H  -0.9330105793610812  -4.424874628048531  2.7045338601607734 
H  -0.6145027935660088  -2.443203208813209  1.5010107542031805 
H  4.5231067844693404  -1.0968438600480124  0.7161216042765445 
H  4.489579337837302  -0.5941043702869706  2.1806903413992513 
H  3.910954709305459  -1.989261137766062  1.8279406944629348 
H  0.97321235233227  -0.06418358845236952  2.449720336437633 
H  1.71004512816137  -1.3490525718207558  2.909958433558996 
H  2.289607401693592  0.04625483912857105  3.2630369093232985 
H  4.435811281373565  1.506585801697978  1.6474648661732798 
H  4.420402126150303  3.732899415262273  0.81042970443059 
H  2.6584007684881965  4.412493574412237  -0.5702115902025428 
H  0.9042909216971957  2.9210200071343584  -1.0239641367544234 
Br  -1.654629867976521  1.654629867976521  0.0 
C  -1.3788582233137676  -1.3788582233137676  0.0 
C  -2.618821778986925  -1.1522995256591737  0.5874691967409313 
H  -2.8106553971707884  -0.30966242518610043  0.9782000501948407 
C  -3.5854032518711887  -2.161278806785389  0.6049610958635797 
H  -4.421117162155692  -2.007227978208148  1.0287619599160838 
C  -3.3399450833386255  -3.3715361338635086  0.016423527177974573 
H  -3.9908757182151104  -4.061238805801311  0.045080339651694 
C  -2.164680252095028  -3.57422256025893  -0.6007549227026177 
H  -2.0132444416912625  -4.3986257169530365  -1.0474288760065327 
C  -1.1561711193052586  -2.601214672555715  -0.5998012209931929 
H  -0.3196784027493984  -2.7832859823079534  -1.0129111498427692 
