65

Ni  0.0  0.0  0.0 
P  1.393009221075008  1.4627458118210421  -8.097280820885875e-17 
N  1.393009221075008  -1.4627458118210426  1.1102230246251565e-16 
H  1.423472752976685  -1.7794765084710773  -0.8146934141280853 
C  2.741986640399178  -0.8527383362985866  0.2868284190247945 
H  2.7654841046814425  -0.630891261176213  1.241454421411055 
C  2.8345947204645343  0.45194602825557717  -0.485016139415903 
H  2.82010517565967  0.28048834369193587  -1.4401488032356702 
H  3.658435225486202  0.9164270095097022  -0.2671931600522647 
C  1.2616582475636189  2.8121323655536496  -1.188748308248336 
C  1.346225344706058  2.5391850518279986  -2.533404022552508 
H  1.4372918939418782  1.656333035049849  -2.81411403320592 
C  1.2997594117851785  3.539051151720777  -3.4728241891249647 
H  1.382673941633741  3.338833630923096  -4.377889018353045 
C  1.1308867493418469  4.817848188692811  -3.0697700338171887 
H  1.1153324978129904  5.494967290313711  -3.7051106334009947 
C  0.9849319329261226  5.130328358730665  -1.768573509498847 
H  0.8365227649446249  6.011053280032038  -1.5111349306926938 
C  1.0601831454819908  4.112083713650647  -0.8056429887577289 
H  0.9719649326610404  4.322195304821348  0.09701594804089256 
C  1.783334338454938  2.2327687719946594  1.5814799662176728 
C  3.053819736317979  2.6401328370184878  1.8809642435078673 
H  3.746267350339876  2.4811796011787353  1.279192899348406 
C  3.314359951053733  3.2873318939902685  3.0732620700429614 
H  4.19098972302462  3.519552651181921  3.278513191412898 
C  2.3839530889732172  3.5739541537238644  3.904489524605639 
H  2.5853825830951926  4.0105193141497875  4.700056366297836 
C  1.0914077373956323  3.2307955024096673  3.6125791031688257 
H  0.40720478636436386  3.4715384784989967  4.194539240346446 
C  0.7918063217697765  2.52056215112997  2.444755555502052 
H  -0.08018878078258784  2.250119975323968  2.2678364478001725 
C  3.882188092652224  -1.8010230476888267  0.016715471494391232 
C  4.634002167900815  -2.296537110448404  1.0673756971932815 
H  4.427750381133086  -2.0489140873142153  1.9401552448850308 
C  5.691864206788111  -3.157700369177401  0.8273422026627977 
H  6.173682638162038  -3.5037797124980115  1.5434899369433457 
C  6.0267151766  -3.4942404747936644  -0.42209224352790586 
H  6.763606324288751  -4.038811365759548  -0.5740856353928606 
C  5.291126012911284  -3.0388600220745863  -1.4718948037958604 
H  5.509481133566631  -3.294632752357934  -2.3384629440635445 
C  4.213570936679134  -2.1909359056787956  -1.249556771689821 
H  3.7141757348625726  -1.8861176683632406  -1.9708995297476375 
C  1.130788709297656  -2.6177555861417616  0.8495419203469838 
C  1.1792688207675492  -3.882457713503812  0.3239552501984892 
H  1.3757479031728008  -4.012533443998043  -0.5757363439122924 
C  0.9311017887888213  -4.96705512419467  1.1557115371970168 
H  0.9436876306086441  -5.8284273734383065  0.8046281071997461 
C  0.6708930799988105  -4.783337462637711  2.4688999123747326 
H  0.51568759359368  -5.518911190694047  3.0169179573176366 
C  0.6331450691129985  -3.496871287316866  3.0104163732782965 
H  0.4519316823921623  -3.3713045972496847  3.9139455564366377 
C  0.866965153539053  -2.411218389071352  2.1874612817635035 
H  0.8464403600262942  -1.5471825943446154  2.532862408400639 
Br  -1.5839191898578664  1.5839191898578664  0.0 
C  -1.2937473829822488  -1.2398794889499034  -0.459800567 
C  -1.601562203225019  -1.4938654694550033  -1.7919791134 
H  -1.1309417375171225  -1.0428217585005106  -2.480879663 
C  -2.60218398542082  -2.411889969420291  -2.121542410022 
H  -2.8231586547736818  -2.5626138747145775  -3.032700502 
C  -3.2683208079706407  -3.09759503004543  -1.14306436557 
H  -3.9596020908062854  -3.707191723557817  -1.368328076 
C  -2.9347449854640226  -2.896087320001541  0.14198826503 
H  -3.3668350933519986  -3.405606940434718  0.81710224434 
C  -1.9675509241539992  -1.9516175659140573  0.5112421903 
H  -1.7755298364628027  -1.8022912010877177  1.4301324877 
