82

Ni  0.0  0.0  0.0 
P  1.3618655651348275  1.4917848982008093  -2.261344511502158e-15 
N  1.3618655651348264  -1.4917848982008097  -1.1102230246251565e-16 
N  1.25866422689968  -2.618202347543969  0.7471011869899157 
C  2.2358964766774787  -1.4478675780301766  -0.9516645494379847 
H  2.726945127890338  -2.24486063073767  -1.1135837455761344 
C  2.5505639335942734  -0.29671504117909175  -1.8110164205936972 
C  2.3212957083745684  1.0457595289920958  -1.4809155885010021 
C  2.7911157753392537  2.0568107849868933  -2.331104016103172 
H  2.655776238186219  2.967744952934928  -2.0973724364053887 
C  3.449781683452911  1.7425472436644012  -3.5067853411586998 
H  3.7731197169756414  2.435239994640957  -4.070325471781375 
C  3.635519243050945  0.41911070306051523  -3.8600009862666234 
H  4.046760759139071  0.20022227591942943  -4.68822058994021 
C  3.220655609356251  -0.5855304464829212  -3.0064153572394297 
H  3.3935469901987387  -1.4908689786190727  -3.235926996726278 
C  2.151615859791174  -3.7863768726392206  0.542057776379112 
H  3.1048776170241266  -3.486856596264997  0.5090826912712674 
C  1.9067895634759107  -4.612499198643695  1.8157626664967332 
H  1.8792015041063843  -5.580541593188439  1.6079434148757623 
H  2.617831567371998  -4.447241264810653  2.4840087693665427 
C  0.5533360278860826  -4.127397991443656  2.3304064323897147 
H  0.4452289066613726  -4.320496326429767  3.2958489440734167 
H  -0.19237838861203382  -4.542725375939405  1.8296699520781532 
C  0.6253032830365611  -2.601988267330949  2.066959478016528 
H  -0.29479290532252467  -2.212859137052102  2.0096845783174797 
C  1.806883507675511  -4.561726550327339  -0.7252516896605659 
C  0.6162807490445528  -4.393538026430493  -1.3938329723553422 
H  -0.006744811956383767  -3.7405638770240848  -1.0983636329198392 
C  0.3267592362363647  -5.186114812417532  -2.5083588006499298 
H  -0.49741453520190326  -5.071534030559402  -2.96870363759504 
C  1.2258631809174747  -6.128814099490417  -2.9422580525635134 
H  1.0259003618574494  -6.66289179457964  -3.7023430389971104 
C  2.417529202792928  -6.299985741131227  -2.2775832362769584 
H  3.0394455370590987  -6.951885643840318  -2.5823151676868643 
C  2.718820309055724  -5.52642640868874  -1.1633785475064862 
H  3.5399091187879934  -5.653256939168163  -0.701538160499496 
C  1.4313188955433558  -1.9049026377243008  3.1549678775205274 
C  2.79596646026023  -1.6762804647747456  3.039739121785824 
H  3.2416939299842396  -1.8736595945374366  2.2240174830710244 
C  3.5194052069295503  -1.1553416444815063  4.116841431378171 
H  4.452335288892104  -0.9998904294439452  4.031462734312061 
C  2.8860156991201187  -0.8705154336032112  5.2940050398004095 
H  3.3824653314783397  -0.5319883908579237  6.028664017736091 
C  1.5161285637061215  -1.0751244026094877  5.419766266056703 
H  1.0768090217146944  -0.8664750186564791  6.23466947172011 
C  0.7950111323693256  -1.5836768493563227  4.346723420160007 
H  -0.1422422660853495  -1.7138992830559099  4.430075413816702 
C  0.7967736236690515  3.19213145825732  -0.3461863853395153 
C  1.2378043572762003  4.251442986283849  0.4187915872871825 
H  1.8258381422520065  4.101767949172739  1.1500209569057973 
C  0.807923212806387  5.559578054787079  0.10648434404524848 
H  1.1109808277961002  6.296669086695344  0.6238932951440518 
C  -0.04539835207483467  5.764546720422974  -0.9448343388554888 
H  -0.3356607341139779  6.645382839346547  -1.1513184330918773 
C  -0.4909854419952371  4.691743307591689  -1.7159628124017772 
H  -1.0811632812906784  4.840712881065738  -2.445163548950743 
C  -0.07112270963916423  3.402934058135677  -1.4119401413801516 
H  -0.3739080762939131  2.6672414617542204  -1.9311876405260446 
C  2.477675952374742  1.6391081518850785  1.4119454729738896 
C  3.8587040842589095  1.6783508906141047  1.2507155551496347 
H  4.2389439165936915  1.545118569225337  0.39073957964602035 
C  4.683188582429288  1.9112665880575226  2.3448627116881013 
H  5.626907940011455  1.9402723281291547  2.239169896569644 
C  4.111241630483656  2.1023740160411672  3.593168305334829 
H  4.667705289906094  2.2711675500846424  4.344268164612744 
C  2.7448990341742823  2.0515827591438867  3.756877491800955 
H  2.3664712274323203  2.184569485473714  4.617810674867219 
C  1.9196799488233103  1.805086642013666  2.6710731515018837 
H  0.9793834014165321  1.7488277872007374  2.788878856754468 
Br  -1.5839191898578664  1.5839191898578664  0.0 
C  -1.2937473829822488  -1.2398794889499034  -0.459800567 
C  -1.601562203225019  -1.4938654694550033  -1.7919791134 
H  -1.1309417375171225  -1.0428217585005106  -2.480879663 
C  -2.60218398542082  -2.411889969420291  -2.121542410022 
H  -2.8231586547736818  -2.5626138747145775  -3.032700502 
C  -3.2683208079706407  -3.09759503004543  -1.14306436557 
H  -3.9596020908062854  -3.707191723557817  -1.368328076 
C  -2.9347449854640226  -2.896087320001541  0.14198826503 
H  -3.3668350933519986  -3.405606940434718  0.81710224434 
C  -1.9675509241539992  -1.9516175659140573  0.5112421903 
H  -1.7755298364628027  -1.8022912010877177  1.4301324877 
