40

Ni  0.0  0.0  0.0 
C  1.147006091202595  3.137129892640634  -0.09109752705699628 
H  0.6024438108764808  3.41114041701987  0.675660899942963 
H  0.6680380738192346  3.339073366948454  -0.9209832128646012 
H  1.9966422442873895  3.6249526198302027  -0.07825057377527966 
C  2.4938789800944363  1.0114667045414183  -1.4255257086869075 
H  1.9300141047955077  0.9930840935509664  -2.239742965945261 
H  3.1716013594347574  1.7238550253600786  -1.539055250668158 
C  2.7180675450923455  1.1338350853533183  1.3139341498804384 
H  3.3984345818250024  1.851144616339316  1.2672699014210715 
H  2.280022331151053  1.182130410635829  2.2009929653481604 
C  4.089429041369526  -0.2644340781664456  -0.11751181936821756 
H  4.630182837843098  -1.0939278941720525  -0.11809560689314744 
H  4.708902871751603  0.5022746225334966  -0.20699696753693597 
C  2.5117747300063273  -1.3135927851312272  1.3100298933103258 
H  1.9957615615962545  -1.247809856691503  2.15185639939891 
H  3.062778923780363  -2.135844989911634  1.3479695846268176 
C  2.2904490432428606  -1.4144760091526611  -1.1811759784493423 
H  2.830290178331252  -2.2448840937997874  -1.181905237782957 
H  1.7061619706576667  -1.4349590865545117  -1.9809647257757899 
C  0.9321398510266424  -2.9183828954219435  0.28413373822247007 
H  1.6968064788079333  -3.531400384226206  0.31266822223245583 
H  0.324574139770041  -3.1889260575500527  -0.43606839585586704 
H  0.45772670486008993  -2.9476429805244933  1.1414829285551866 
N  3.3632765490195395  -0.15693652875143882  1.1621155032236834 
N  3.170397002280594  -0.2840140819796775  -1.2741177914169286 
P  1.46400467126987  1.3916861436760801  5.2541203359167466e-17 
N  1.46400467126987  -1.3916861436760801  0.0 
Br  -1.5839191898578664  1.5839191898578664  0.0 
C  -1.29374738  -1.23987949  -0.45980057 
C  -1.6015622  -1.49386547  -1.79197911 
H  -1.13094174  -1.04282176  -2.48087966 
C  -2.60218399  -2.41188997  -2.12154241 
H  -2.82315865  -2.56261387  -3.0327005 
C  -3.26832081  -3.09759503  -1.14306437 
H  -3.95960209  -3.70719172  -1.36832808 
C  -2.93474499  -2.89608732  0.14198827 
H  -3.36683509  -3.40560694  0.81710224 
C  -1.96755092  -1.95161757  0.51124219 
H  -1.77552984  -1.8022912  1.43013249 
