31

Fe  0.0  0.0  0.0 
N  6.420419173689077  1.1365806156239788  -1.4586337375274891 
H  6.834697792466224  1.8747460708898642  -1.6108049459613245 
O  1.1416786478690053  1.3786478393701564  0.0 
O  1.1416786478690053  -1.3786478393701564  0.0 
C  2.344695848467953  1.2556055292487427  -0.36985063874908175 
C  3.0265580927057947  0.006478376670927766  -0.47357337770143826 
C  2.3605474984178723  -1.248359070280248  -0.2699321244512193 
C  3.151405499711981  -2.4614625092005626  -0.4174032004926113 
H  2.7364791503868027  -3.2830909175963576  -0.28571700853355037 
C  4.4457868907673355  -2.4422922836757666  -0.7330560587767984 
H  4.908878405886842  -3.246681833589137  -0.7963594600637217 
C  5.139522172613537  -1.2219276285738223  -0.976358354901807 
C  4.412256022710704  0.007920735584650451  -0.8510054595133989 
C  5.100039852055443  1.2116276922198903  -1.131224706960463 
C  4.423265625651652  2.489398700663059  -1.0993611469324822 
C  5.056450329158203  3.7019023888882474  -1.428052685134552 
H  5.954886261425776  3.7113173457969886  -1.6671642578300763 
C  4.334549896950575  4.876759084518348  -1.3940420880864002 
H  4.753665337245179  5.676135403494397  -1.6168821391700559 
C  2.9989171954240748  4.890013839995532  -1.036028753041047 
H  2.5238279189676804  5.68992490031665  -1.0379613606286298 
C  2.3780425142269137  3.727494965173804  -0.6785080320589503 
H  1.4881749668029027  3.74636407681865  -0.4074854229147595 
C  3.065705933305165  2.503782990424148  -0.715240509730777 
C  6.492261941655488  -1.1928242137247267  -1.3253504013678177 
H  6.970374733342504  -1.9867517808255828  -1.3979219289978981 
C  7.116434813460493  0.010340548610668243  -1.5610202144052452 
H  8.017767943493165  0.035446104222182306  -1.7899145782128698 
Cl  -1.5202795795510768  1.5202795795510768  0.0 
Cl  -1.5202795795510768  -1.5202795795510768  0.0 
