18
unq_CSD-MEHYUU-02-a
N  0.3287  -1.9585  -0.20099999999999962 
N  0.6275999999999999  -0.46919999999999995  1.8241000000000005 
H  0.19059999999999988  -2.3636999999999997  -0.9698000000000002 
N  0.9292  -1.7976999999999999  1.9506000000000006 
C  0.7467999999999999  -2.6101  0.8182999999999998 
C  0.9867999999999999  -4.0519  0.9583000000000004 
H  0.2977000000000001  -4.4337  1.5575 
H  1.8677  -4.1894  1.3878000000000004 
C  0.9621  -4.8103  -0.36789999999999967 
H  0.12129999999999996  -4.622  -0.8351999999999995 
H  1.0315999999999999  -5.7728  -0.19430000000000014 
H  1.7166  -4.5226  -0.9226999999999999 
C  1.3463  -2.0548  3.227100000000001 
H  1.6217  -2.8978  3.5676999999999994 
C  1.2958999999999998  -0.8806999999999999  3.919200000000001 
H  1.5151000000000001  -0.7442  4.8334 
C  0.8507  0.08610000000000007  2.9981999999999998 
H  0.7293000000000001  1.0075  3.1948 
