47
unq_CSD-MIPREK-02-a
N  -1.8485  -0.45630000000000015  -1.2527000000000008 
N  -1.0938000000000003  -1.1835000000000004  1.4154 
C  -2.7018000000000004  -1.1967000000000003  -0.48960000000000026 
C  -3.7979000000000003  -1.5874000000000001  -1.2291000000000007 
H  -4.5053  -2.1129000000000002  -0.9324000000000003 
C  -3.6497  -1.0426000000000002  -2.5003 
C  -2.4439  -0.36570000000000036  -2.4958 
C  -1.9968000000000004  0.2694000000000001  -3.6309000000000005 
H  -1.1846  0.7238999999999995  -3.619700000000001 
C  -2.7521000000000004  0.23069999999999968  -4.7919 
H  -2.4538  0.6690999999999994  -5.556100000000001 
C  -3.9579000000000004  -0.45920000000000005  -4.811 
H  -4.464300000000001  -0.49460000000000015  -5.5899 
C  -4.3878  -1.0781  -3.6826000000000008 
H  -5.1962  -1.5391000000000004  -3.6983000000000006 
C  -2.4553000000000003  -1.5197000000000003  0.9580000000000002 
H  -3.0968  -1.0330000000000004  1.499699999999999 
H  -2.6085000000000003  -2.4642  1.0983999999999998 
C  -0.8720000000000003  -1.7937000000000003  2.6864999999999988 
C  -0.4085000000000001  -3.1260000000000003  2.7685999999999993 
C  -0.18190000000000017  -3.7166  4.002599999999999 
H  0.1122999999999994  -4.5983  4.045299999999999 
C  -0.3873000000000002  -3.0116000000000005  5.161299999999999 
H  -0.21510000000000007  -3.4087000000000005  5.985099999999999 
C  -0.8533000000000004  -1.7080000000000002  5.103999999999999 
H  -1.0012000000000003  -1.2425000000000002  5.895199999999999 
C  -1.1039000000000003  -1.0787000000000004  3.8924000000000003 
C  -1.6791  0.3176999999999994  3.882299999999999 
H  -1.6739000000000002  0.6303999999999998  2.953999999999999 
C  -0.8297000000000003  1.2847999999999997  4.694899999999999 
H  -0.9871000000000003  1.1429999999999998  5.6311 
H  -1.0670000000000002  2.1873999999999993  4.466799999999999 
H  0.09759999999999991  1.1398000000000001  4.500499999999999 
C  -3.1124  0.3628999999999998  4.367899999999999 
H  -3.6612  -0.18190000000000017  3.799199999999999 
H  -3.4294000000000002  1.2687  4.344299999999999 
H  -3.1563000000000003  0.03080000000000016  5.268099999999999 
C  -0.1473  -3.9648000000000003  1.5311000000000003 
H  -0.2722000000000002  -3.3797  0.7556999999999992 
C  1.2821999999999996  -4.5015  1.4614999999999991 
H  1.8990999999999998  -3.7666000000000004  1.4468999999999994 
H  1.3885999999999994  -5.0238000000000005  0.6646000000000001 
H  1.4561000000000002  -5.0496  2.2302 
C  -1.1608  -5.0979  1.4040999999999997 
H  -0.9913000000000003  -5.7555000000000005  2.081899999999999 
H  -1.0813000000000001  -5.5041  0.5375999999999994 
H  -2.0479000000000003  -4.7465  1.5131999999999994 
