84
unq_CSD-MUYZOW-02-a
N  -0.1036999999999999  1.8768000000000002  0.09660000000000046 
N  1.8846000000000003  0.3346  -0.14569999999999972 
C  1.1553999999999998  2.6643  -0.07979999999999965 
H  1.2048  2.9330999999999996  -1.0206999999999997 
C  1.1735000000000002  3.9304000000000006  0.7563999999999993 
C  0.6342000000000003  5.0943000000000005  0.22090000000000032 
H  0.2530999999999999  5.073600000000001  -0.6288 
C  0.6541999999999999  6.287599999999999  0.9349000000000007 
H  0.26739999999999986  7.056900000000001  0.5798000000000005 
C  1.2509000000000001  6.316599999999999  2.1591000000000005 
H  1.2746999999999997  7.1128  2.638300000000001 
C  1.8111000000000002  5.197699999999999  2.6944999999999997 
H  2.2133999999999996  5.2453  3.5327 
C  1.7935000000000003  3.9589  2.001900000000001 
C  2.5020000000000002  2.7821999999999996  2.5044000000000004 
C  2.8856999999999995  2.6643  3.8450000000000006 
H  2.5761  3.278500000000001  4.4717 
C  3.7278999999999995  1.6302000000000003  4.246600000000001 
H  3.9492999999999996  1.5392000000000001  5.146800000000001 
C  4.232900000000001  0.7513000000000005  3.3406000000000002 
H  4.851799999999999  0.10810000000000031  3.602500000000001 
C  3.8104999999999998  0.8237000000000005  2.0154999999999994 
H  4.150399999999999  0.21980000000000022  1.3965999999999994 
C  2.9042  1.7667000000000002  1.6042000000000005 
C  2.3451  1.7165  0.19570000000000043 
H  3.0665999999999998  1.9529000000000005  -0.4211999999999998 
C  -1.3273000000000001  2.6085000000000003  -0.10109999999999975 
C  -2.0799000000000003  2.9952000000000005  1.0434999999999999 
C  -3.2674000000000003  3.6982999999999997  0.8300999999999998 
H  -3.7884  3.9403000000000006  1.5615000000000006 
C  -3.6756  4.0334  -0.4056999999999995 
H  -4.47  4.504900000000001  -0.5182000000000002 
C  -2.9295  3.6859  -1.5019 
H  -3.2144  3.9506999999999994  -2.3476999999999997 
C  -1.7552  2.9435000000000002  -1.3854999999999995 
C  -1.645  2.6808000000000005  2.452 
H  -0.7526000000000002  2.2776000000000005  2.407400000000001 
C  -2.5727  1.6840000000000002  3.1349 
H  -3.4016  2.1162  3.3503000000000007 
H  -2.1595  1.3635000000000002  3.9400999999999993 
H  -2.7387  0.9457000000000004  2.5450999999999997 
C  -1.5434  3.9506999999999994  3.3095 
H  -1.2305000000000001  4.678599999999999  2.7662999999999993 
H  -0.9269000000000003  3.8038000000000007  4.0313 
H  -2.4081  4.1678  3.666500000000001 
C  -1.0319000000000003  2.5216000000000003  -2.6445999999999996 
H  -0.28770000000000007  1.9446000000000003  -2.3709999999999996 
C  -0.40790000000000015  3.7438000000000002  -3.4225 
H  -1.112  4.2691  -3.8106 
H  0.17070000000000007  3.4212000000000007  -4.1152 
H  0.09519999999999973  4.287800000000001  -2.8114 
C  -1.941  1.6840000000000002  -3.5448 
H  -2.3484  0.9850000000000003  -3.0286999999999997 
H  -1.4218000000000002  1.2952000000000004  -4.2529 
H  -2.6247  2.2445000000000004  -3.9192 
C  2.8126  -0.5184999999999995  -0.8403 
C  3.2682999999999995  -0.19179999999999975  -2.1323999999999996 
C  4.145099999999999  -1.0644999999999998  -2.7764999999999995 
H  4.477600000000001  -0.8391000000000002  -3.6146 
C  4.5265  -2.2411999999999996  -2.2042 
H  5.093499999999999  -2.8202999999999996  -2.662 
C  4.068099999999999  -2.5742  -0.9412000000000003 
H  4.336499999999999  -3.3787  -0.5609000000000002 
C  3.2158  -1.7386999999999997  -0.22529999999999983 
C  2.778  1.0346000000000002  -2.9084000000000003 
H  2.0403999999999995  1.4400000000000004  -2.4059 
C  2.2661000000000002  0.6581999999999999  -4.2781 
H  2.9971  0.34799999999999986  -4.8194 
H  1.8637000000000001  1.4255000000000004  -4.6933 
H  1.613  -0.04079999999999995  -4.1947 
C  3.8836  2.0832000000000006  -3.0617 
H  4.458600000000001  2.0542  -2.2934 
H  3.4894000000000003  2.9537999999999993  -3.1353999999999997 
H  4.394299999999999  1.8950000000000005  -3.8531999999999997 
C  2.7358  -2.1605999999999996  1.1502 
H  2.3904  -1.3601999999999999  1.5945 
C  1.5821999999999998  -3.1409  1.0358 
H  1.1430000000000002  -3.0208999999999997  0.18989999999999974 
H  0.9567999999999999  -2.9837  1.745800000000001 
H  1.9179999999999997  -4.038399999999999  1.0959000000000003 
C  3.823  -2.7251999999999996  2.0290999999999997 
H  4.127599999999999  -3.5606999999999998  1.6662999999999997 
H  3.4778  -2.8678999999999997  2.9138 
H  4.5565999999999995  -2.1088999999999998  2.0679 
