63
unq_CSD-NAGXUQ-02-b
N  0.3900000000000001  -2.224  0.7781999999999996 
N  -2.323  -0.40870000000000006  -0.5582000000000003 
C  1.6024000000000003  -2.9116  0.8885000000000001 
C  1.4549000000000003  -4.2055  0.45619999999999994 
H  2.127  -4.8453  0.40329999999999977 
C  0.09109999999999996  -4.3946000000000005  0.10559999999999992 
H  -0.2885  -5.191800000000001  -0.18990000000000018 
C  -0.5844  -3.1803  0.27760000000000007 
C  -2.0224  -2.8603  0.21589999999999998 
C  -2.7821  -4.1754  -0.06200000000000028 
H  -2.5632  -4.4936  -0.9419 
H  -3.7272  -4.0181000000000004  -0.0047000000000001485 
H  -2.5278  -4.8347  0.5885000000000002 
C  -2.4532  -2.3247  1.6161999999999996 
H  -2.132  -2.9204  2.2998 
H  -3.4111000000000002  -2.2753  1.6602999999999999 
H  -2.0821  -1.4498  1.7551 
C  -2.4495  -1.8068  -0.7765 
C  -3.3572  -1.9712  -1.7887000000000002 
H  -3.665  -2.7985  -2.0798 
C  -3.776  -0.7286000000000001  -2.3422 
H  -4.3563  -0.5607000000000002  -3.0479000000000003 
C  -3.0838  0.16049999999999986  -1.5439 
C  2.7615999999999996  -2.3548  1.6337999999999995 
C  4.0703  -2.3654  1.0670999999999995 
C  5.1225  -1.9041000000000001  1.8389000000000002 
H  5.9751  -1.8828  1.4662000000000002 
C  4.9596  -1.4834  3.1179 
C  3.6986999999999997  -1.5664  3.6979 
H  3.5961  -1.342  4.5931999999999995 
C  2.5888  -1.9748  2.9746 
C  4.2878  -2.8851  -0.34430000000000005 
H  5.120299999999999  -2.5492  -0.6861000000000002 
H  3.5682  -2.5917  -0.9088000000000003 
H  4.3111  -3.8449  -0.33099999999999996 
C  6.106699999999999  -0.9548999999999999  3.9361 
H  6.9034  -1.4463000000000001  3.7243999999999997 
H  5.907699999999999  -1.0538  4.8689 
H  6.240900000000001  -0.025100000000000122  3.7331999999999996 
C  1.2724000000000002  -2.1586  3.6428 
H  1.3507999999999996  -1.9323000000000001  4.5733999999999995 
H  0.9954000000000001  -3.0742  3.5589999999999997 
H  0.6200999999999999  -1.5877000000000001  3.2281999999999997 
C  -3.4892  1.6400000000000001  -1.5174 
C  -3.4859  2.4372000000000003  -2.7303 
C  -3.9806999999999997  3.7274999999999996  -2.6267 
H  -3.991  4.2578  -3.3897 
C  -4.4566  4.2631  -1.4579000000000002 
C  -4.4829  3.5543  -0.3288000000000002 
H  -4.8212  3.929  0.4518 
C  -3.9934000000000003  2.2357  -0.33099999999999996 
C  -3.1056  1.8556000000000004  -4.0446 
H  -3.8723  1.4366999999999996  -4.4438 
H  -2.4142  1.2015999999999996  -3.9189000000000003 
H  -2.785  2.5521  -4.6224 
C  -4.8672  5.716099999999999  -1.4248000000000003 
H  -5.290900000000001  5.9475999999999996  -2.2562 
H  -4.0908999999999995  6.265799999999999  -1.2969 
H  -5.4825  5.8591999999999995  -0.7015000000000002 
C  -4.1033  1.419  0.9545999999999997 
H  -4.6653  0.6553999999999998  0.8002999999999996 
H  -4.484  1.9617  1.6470999999999996 
H  -3.2296  1.1237999999999997  1.2213999999999996 
