32
unq_CSD-PUXVIO-02-b
N  0.6831999999999998  -1.5615  0.8566999999999982 
N  1.9219  0.2976  0.02499999999999858 
N  2.0479000000000003  -1.6797999999999997  1.018699999999999 
N  2.71  -0.7083  0.5420999999999996 
C  -0.025100000000000122  -2.6388  1.4688999999999997 
C  0.6261000000000001  -3.6519999999999997  2.1744999999999983 
H  1.5545  -3.6496  2.2352999999999987 
C  -0.10340000000000016  -4.668500000000001  2.7897999999999996 
H  0.34450000000000003  -5.3260000000000005  3.271099999999999 
C  -1.484  -4.714600000000001  2.696299999999999 
C  -2.2558  -5.8144  3.3987999999999996 
H  -3.1496  -5.5133  3.5794999999999995 
H  -1.8193000000000001  -6.034800000000001  4.2243999999999975 
H  -2.2883  -6.590800000000001  2.8348999999999993 
C  -2.1153  -3.7034999999999996  1.9844999999999988 
H  -3.0408  -3.717  1.9034999999999993 
C  -1.4061000000000001  -2.6814999999999998  1.3909999999999982 
H  -1.8614000000000002  -2.0112  0.9330999999999996 
C  2.7233  1.3195000000000001  -0.5545000000000009 
C  3.9488000000000003  1.0528  -1.1370000000000005 
H  4.2837  0.18409999999999999  -1.1417000000000002 
C  4.6751  2.0764  -1.7134 
H  5.5052  1.8807999999999998  -2.084100000000001 
C  4.2192  3.3763  -1.7601000000000013 
C  5.0062999999999995  4.4693  -2.4564000000000004 
H  5.7948  4.0915  -2.8520000000000003 
H  5.2576  5.14  -1.8177000000000003 
H  4.463  4.8678  -3.1402 
C  3.003  3.6391  -1.1495000000000015 
H  2.6786000000000003  4.5111  -1.1339000000000006 
C  2.2641999999999998  2.63  -0.5654000000000003 
H  1.4455  2.8311  -0.17290000000000028 
