83
unq_CSD-TANRIL-02-a
N  -0.10030000000000072  0.9666999999999994  -1.9350000000000005 
N  0.1498999999999988  2.1477999999999984  0.33809999999999896 
Si  0.3092000000000006  2.5336  -1.3491999999999997 
C  0.2416000000000018  3.113199999999999  1.3788999999999998 
C  1.482800000000001  3.42  1.9900000000000002 
C  1.5371999999999986  4.4267  2.9611 
H  2.375499999999999  4.655200000000001  3.344999999999999 
C  0.4101999999999997  5.090199999999999  3.3735999999999997 
H  0.4721000000000011  5.7774  4.0282 
C  -0.8106000000000009  4.757300000000001  2.8362 
H  -1.5912000000000006  5.205199999999998  3.138399999999999 
C  -0.9252000000000002  3.773199999999999  1.8545999999999996 
C  2.7586000000000013  2.6655999999999995  1.662799999999999 
H  2.567499999999999  2.0599999999999987  0.8891999999999989 
C  3.915800000000001  3.5869999999999997  1.2617999999999991 
H  3.6431000000000004  4.1402  0.4993999999999996 
H  4.692800000000002  3.0455999999999985  1.0088999999999988 
H  4.1509  4.164200000000001  2.0184999999999995 
C  3.157499999999999  1.7893999999999988  2.8580000000000005 
H  2.407499999999999  1.2089999999999996  3.1030999999999995 
H  3.389199999999999  2.3607999999999993  3.6197 
H  3.931000000000001  1.2386  2.614799999999999 
C  -2.3050999999999995  3.4132999999999996  1.328199999999999 
H  -2.1990000000000016  3.1378999999999984  0.37260000000000026 
C  -2.8634000000000004  2.2241999999999997  2.084199999999999 
H  -2.219000000000001  1.485899999999999  2.055999999999999 
H  -3.7044999999999995  1.9380999999999986  1.6685999999999996 
H  -3.0287000000000006  2.4771  3.0162999999999993 
C  -3.3209999999999997  4.5554999999999986  1.364799999999999 
H  -2.9687  5.3215  0.8657000000000004 
H  -3.4845000000000006  4.817599999999999  2.2955000000000005 
H  -4.1623  4.258299999999998  0.9572000000000003 
C  -0.8359999999999985  0.6608  -3.1103000000000005 
C  -0.164200000000001  0.3545999999999996  -4.322 
C  -0.9126000000000012  -0.03710000000000058  -5.4325 
H  -0.46750000000000114  -0.25290000000000035  -6.243500000000001 
C  -2.291499999999999  -0.11630000000000074  -5.3729000000000005 
H  -2.7867999999999995  -0.40050000000000097  -6.133100000000001 
C  -2.9468999999999994  0.2201999999999984  -4.207000000000001 
H  -3.8964  0.17719999999999914  -4.175000000000001 
C  -2.2362  0.6214999999999993  -3.0732 
C  1.3404999999999987  0.4800999999999984  -4.4199 
H  1.6917000000000009  0.5887999999999991  -3.4895000000000005 
C  2.0215999999999994  -0.7346000000000004  -5.0247 
H  1.7896999999999998  -1.532  -4.5061 
H  2.9933000000000014  -0.6054000000000013  -5.008500000000001 
H  1.723700000000001  -0.8491  -5.95 
C  1.7276999999999987  1.731399999999999  -5.2034 
H  1.2958999999999996  2.5139999999999993  -4.801900000000001 
H  1.431799999999999  1.6390999999999991  -6.133100000000001 
H  2.6994000000000007  1.8439999999999994  -5.1799 
C  -3.0203000000000007  1.0061999999999998  -1.8225999999999996 
H  -2.360900000000001  1.3548999999999989  -1.155800000000001 
C  -4.049799999999999  2.098699999999999  -2.0468 
H  -3.6125000000000007  2.8831999999999987  -2.4400000000000004 
H  -4.456199999999999  2.3461  -1.1910000000000007 
H  -4.7440999999999995  1.7738999999999994  -2.6560000000000006 
C  -3.7005  -0.20120000000000005  -1.1926000000000005 
H  -3.0366999999999997  -0.9062999999999999  -1.040700000000001 
H  -4.398199999999999  -0.5353000000000012  -1.7943999999999996 
H  -4.1023  0.05909999999999904  -0.3387000000000011 
C  -0.7652000000000001  3.9182999999999986  -2.04 
C  -1.0886999999999993  5.043499999999998  -1.2774 
H  -0.7814000000000014  5.0981999999999985  -0.3810000000000002 
C  -1.841899999999999  6.0761  -1.7919999999999998 
H  -2.067  6.8165999999999976  -1.2425999999999995 
C  -2.2707000000000015  6.037700000000001  -3.1077000000000004 
H  -2.8048  6.741  -3.4566 
C  -1.9196999999999989  4.9742999999999995  -3.9046000000000003 
H  -2.1789999999999985  4.959699999999998  -4.818300000000001 
C  -1.1857000000000006  3.921499999999998  -3.3714000000000004 
H  -0.9634  3.184099999999999  -3.9285000000000005 
C  2.0578000000000003  3.0717  -1.8282000000000007 
C  3.1233000000000004  2.1595999999999993  -1.8054000000000006 
H  2.965299999999999  1.2643999999999984  -1.5313999999999997 
C  4.4091999999999985  2.5473  -2.1778000000000004 
H  5.118600000000001  1.9159999999999986  -2.1536 
C  4.6538  3.8355999999999995  -2.5792 
H  5.528500000000001  4.090399999999999  -2.8485000000000005 
C  3.639099999999999  4.756699999999999  -2.5933 
H  3.8150000000000013  5.6538  -2.8462000000000005 
C  2.3519000000000005  4.376100000000001  -2.2391000000000005 
H  1.6518000000000015  5.018799999999999  -2.2757000000000005 
