26
unq_CSD-KELBAE-02-a
N  1.4539  1.129699999999998  -0.3943 
N  1.4634999999999998  -1.1074000000000002  0.4194 
C  0.8540000000000001  3.4475  -0.7259 
C  0.8748  4.623599999999998  -1.4769 
C  1.5501999999999998  4.659699999999999  -2.6974 
C  2.2047  3.521399999999998  -3.167 
C  2.1839000000000004  2.3453  -2.4178 
C  1.5085000000000002  2.307499999999999  -1.1973 
N  2.6902999999999997  0.6008999999999993  -0.2563 
N  2.6981  -0.5460000000000012  0.3065 
C  2.2802  -2.3762000000000008  2.3748 
C  2.3383000000000003  -3.564300000000001  3.1043 
C  1.6532999999999998  -4.692300000000001  2.6526 
C  0.9112  -4.633900000000001  1.4733 
C  0.8531  -3.4458  0.7456 
C  1.5379999999999998  -2.3178  1.1955 
H  0.38919999999999977  3.4200999999999997  0.1129 
H  0.42479999999999984  5.406499999999999  -1.1524 
H  1.5649000000000002  5.4701  -3.2118 
H  2.6685999999999996  3.5470999999999986  -4.0058 
H  2.6338999999999997  1.5606999999999989  -2.7404 
H  2.7508999999999997  -1.5984000000000016  2.6849 
H  2.8488999999999995  -3.6038000000000014  3.9162 
H  1.6932  -5.509500000000001  3.1562 
H  0.4403999999999999  -5.4117000000000015  1.1632 
H  0.34240000000000004  -3.4063000000000017  -0.0663 
