28
unq_CSD-UJUCUA-02-a
N  2.0976  -0.5007999999999999  -1.0219000000000005 
N  -1.8284000000000002  -0.05509999999999993  1.5645000000000007 
N  3.1822  -1.2395  -0.7071000000000005 
N  4.071300000000001  -1.1138000000000001  -1.6759000000000004 
N  3.5907  -0.31579999999999986  -2.6480999999999995 
N  0.2588999999999997  1.0755  -2.223799999999999 
N  -1.9531999999999998  1.2793999999999999  -0.8184000000000005 
N  -3.9335999999999998  0.42669999999999986  2.0967000000000002 
N  -3.3937  -0.2923  3.0829000000000004 
N  -2.141  -0.5606  2.7715999999999994 
C  2.3778000000000006  0.034800000000000164  -2.2203 
C  1.4301000000000004  0.9352999999999998  -2.8795 
C  1.6934000000000005  1.5915  -4.0761 
H  2.5365  1.4942000000000002  -4.503299999999999 
C  0.7100999999999997  2.3849  -4.630999999999999 
H  0.8609999999999998  2.8375000000000004  -5.4532 
C  -0.5014000000000003  2.5084  -3.9665 
H  -1.1979999999999995  3.0377  -4.338099999999999 
C  -0.6886999999999999  1.8544999999999998  -2.7577 
C  -1.9386999999999999  1.9543  -1.9749999999999996 
C  -3.0481  2.7138  -2.3977000000000004 
H  -3.0112  3.2224000000000004  -3.197799999999999 
C  -4.189  2.6996  -1.6219000000000001 
H  -4.9597  3.1836  -1.8943999999999992 
C  -4.2011  1.9802  -0.4497 
H  -4.9834  1.9558  0.08800000000000097 
C  -3.0802  1.3029000000000002  -0.06349999999999945 
C  -2.9634  0.5543999999999998  1.1869999999999994 
