38
unq_CSD-UKARUU-02-a
N  -0.22949999999999982  1.5016999999999996  1.2044 
N  -0.05489999999999995  1.4741  -1.4716 
C  0.3485000000000005  2.821999999999999  1.1227 
C  0.8142000000000005  3.4263999999999992  2.2467 
H  0.8917000000000002  2.9276999999999997  3.0515 
C  1.1882000000000001  4.7973  2.23 
H  1.5391000000000004  5.211  3.0106 
C  1.0388000000000002  5.5017  1.0925 
H  1.2458999999999998  6.4291  1.094 
C  0.5792999999999999  4.9008  -0.10560000000000003 
C  0.42300000000000004  5.6592  -1.2644 
H  0.6093999999999999  6.591100000000001  -1.2462 
C  0.01130000000000031  5.08  -2.4095 
H  -0.1275999999999997  5.6189  -3.1795 
C  -0.21579999999999977  3.6942000000000004  -2.4897 
H  -0.5019  3.3149999999999995  -3.3126 
C  -0.02289999999999992  2.8621999999999996  -1.3733 
C  0.29689999999999994  3.4908  -0.11470000000000002 
C  -1.5151999999999997  1.3741000000000003  1.9472 
H  -1.9205999999999999  0.5122999999999998  1.6401 
C  -1.3432  1.2304999999999993  3.4584 
H  -0.7014  0.5145999999999997  3.6475000000000004 
H  -2.2058999999999997  1.0109999999999992  3.8668 
H  -1.0097999999999998  2.0739  3.8305000000000002 
C  -2.5054  2.452  1.5598999999999998 
H  -2.582  2.4899000000000004  0.5827 
H  -2.1944  3.3184000000000005  1.8957000000000002 
H  -3.3809  2.2475000000000005  1.9472 
C  0.028000000000000025  0.8477999999999994  -2.8179 
H  0.11140000000000017  -0.13119999999999976  -2.6349 
C  -1.2592999999999996  0.9764999999999997  -3.6726 
H  -2.0052  1.2512000000000008  -3.0993 
H  -1.4655  0.11129999999999995  -4.084099999999999 
H  -1.1218999999999997  1.6464999999999996  -4.373 
C  1.2927  1.2005999999999997  -3.597 
H  2.0745000000000005  1.0995000000000008  -3.0146 
H  1.2343000000000002  2.1267999999999994  -3.9101 
H  1.3792999999999997  0.5996000000000006  -4.367 
