55
unq_CSD-HATQIC-02-a
N  -1.9198  -0.6395  -0.0010999999999999899 
N  -0.9493  -0.10529999999999973  -1.8925 
N  -3.0849  -1.4099  -1.9258 
C  -3.1935000000000002  -0.48439999999999994  2.0964 
H  -3.5144  0.40390000000000015  1.8364000000000003 
H  -2.3659  -0.36999999999999966  2.6085000000000003 
C  -4.2327  -1.1578999999999997  2.9682 
H  -5.0868  -1.1841999999999997  2.4882 
H  -4.3604  -0.6297999999999999  3.7828 
C  -3.8280000000000003  -2.5781  3.3509 
H  -3.0395  -2.5469999999999997  3.9317 
H  -4.5561  -3.0004999999999997  3.8504000000000005 
C  -3.5125  -3.4112999999999998  2.1102000000000003 
H  -3.1749  -4.2904  2.3840000000000003 
H  -4.3316  -3.5494  1.5912000000000002 
C  -2.4774000000000003  -2.7194  1.2453000000000003 
H  -2.3316  -3.2474999999999996  0.43299999999999994 
H  -1.6279000000000003  -2.6773  1.7321 
C  -2.9055  -1.2990999999999997  0.8535 
H  -3.7483  -1.3699999999999997  0.33910000000000007 
C  -4.8245000000000005  -1.7289999999999996  -3.5582 
H  -5.2461  -0.8997999999999999  -3.2500999999999998 
H  -5.1798  -2.4656  -3.0187 
C  -5.1845  -1.9625  -5.0405999999999995 
H  -4.9232  -1.1803999999999997  -5.5699 
H  -6.1526  -2.0806  -5.13 
C  -4.4475  -3.2325999999999997  -5.5790999999999995 
H  -4.798  -4.0287999999999995  -5.1277 
H  -4.6214  -3.3274  -6.5390999999999995 
C  -2.9603  -3.1361  -5.3454 
H  -2.5949  -2.4048  -5.8849 
H  -2.5333  -3.9680999999999997  -5.6375 
C  -2.6296  -2.8901  -3.8687 
H  -2.9213  -3.6597  -3.3383 
H  -1.6588000000000003  -2.801  -3.7656 
C  -3.3066  -1.6343999999999999  -3.3486 
H  -2.9625  -0.8531  -3.8514999999999997 
C  -1.3986  1.2358000000000002  -3.9602999999999997 
H  -2.3615  1.0891000000000002  -3.8480999999999996 
H  -1.1656000000000004  2.0730000000000004  -3.5067 
C  -1.0865  1.3578000000000001  -5.4060999999999995 
H  -1.5941  2.1083  -5.7806999999999995 
H  -1.3742999999999999  0.5430999999999999  -5.8666 
C  0.4153000000000002  1.5835  -5.6707 
H  0.5902000000000003  1.5817000000000005  -6.6342 
H  0.6942000000000004  2.4507000000000003  -5.3076 
C  1.1993999999999998  0.4504999999999999  -4.9902 
H  1.0019999999999998  -0.3933  -5.4462 
H  2.1593999999999998  0.6241000000000003  -5.083 
C  0.8623000000000003  0.3071999999999999  -3.5101 
H  1.1338999999999997  1.1193  -3.0336 
H  1.3613  -0.44720000000000004  -3.1332 
C  -0.6321000000000003  0.07779999999999987  -3.3095999999999997 
H  -0.8784999999999998  -0.7545999999999999  -3.7851 
C  -2.1009  -0.7599  -1.4285999999999999 
