19
unq_CSD-ZUGXUX-02-a
N  -1.4264000000000001  -0.7872000000000003  1.3262999999999998 
N  -1.7566999999999995  0.7195999999999998  -0.7671000000000001 
N  -4.3748  -2.8773  4.956 
C  -3.7525999999999997  -0.8003999999999998  1.9378000000000002 
H  -4.6274  -0.5507000000000009  1.7420999999999998 
N  -5.5458  -2.9245  5.608099999999999 
C  -4.5293  -1.9102999999999994  4.0455 
C  -2.1582  -1.9025999999999996  3.3167 
H  -1.9328000000000003  -2.4006000000000007  4.0691 
N  -3.9679  0.7945999999999991  -0.7279 
N  -2.1794  1.414299999999999  -1.8393000000000002 
N  -5.7447  -1.3580000000000005  4.1149 
N  -6.3621  -2.0176999999999996  5.1133999999999995 
N  -3.506  1.4557000000000002  -1.8142 
C  -3.4804  -1.5404  3.0900000000000007 
C  -2.8773  0.3651  -0.12230000000000008 
C  -1.1829999999999998  -1.5235000000000003  2.4221000000000004 
H  -0.3086000000000002  -1.7912999999999997  2.5852000000000004 
C  -2.7279  -0.4407999999999994  1.0873999999999997 
