58
unq_CSD-LIQYOA-02-a
N  -0.7481  1.359700000000001  -1.1187000000000005 
N  1.5646000000000004  1.0761000000000012  0.12789999999999946 
C  -0.31599999999999984  2.4696000000000007  -0.36460000000000026 
C  -1.1418  3.6396000000000006  -0.0968 
C  -2.4122999999999992  3.8088000000000006  -0.6775000000000002 
C  -3.141  4.953400000000001  -0.47580000000000044 
C  -2.6414  5.9652  0.3342999999999998 
C  -1.4303  5.8114  0.9528999999999996 
C  -0.6464999999999996  4.654700000000001  0.7649999999999997 
C  0.6080000000000005  4.4599  1.4855999999999998 
C  1.0790000000000006  5.391800000000001  2.4314999999999998 
C  2.2239000000000004  5.1566  3.1589 
C  2.9305000000000003  3.972500000000001  2.9812000000000003 
C  2.5061999999999998  3.0454999999999997  2.064 
C  1.3529  3.2769000000000004  1.2852999999999994 
C  0.9013000000000009  2.3068  0.30379999999999985 
C  -1.4434999999999993  1.423700000000001  -2.3421000000000003 
C  -2.3590999999999998  0.4121000000000006  -2.6356 
C  -3.0671  0.42960000000000065  -3.8298 
C  -2.8439999999999994  1.4755000000000011  -4.7224 
C  -1.9037999999999995  2.468000000000001  -4.4670000000000005 
C  -1.2041999999999993  2.4319999999999995  -3.2701000000000002 
C  -4.0709  -0.6478999999999999  -4.1358 
C  -1.6381999999999994  3.5532000000000012  -5.4749 
C  2.9365000000000006  1.0072999999999999  -0.20800000000000018 
C  3.6583000000000006  -0.1343999999999994  0.12919999999999998 
C  4.982700000000001  -0.2699999999999996  -0.26730000000000054 
C  5.5686  0.7579000000000002  -1.0009000000000006 
C  4.8635  1.8990999999999998  -1.3502 
C  3.5396  2.0201000000000002  -0.9412000000000003 
C  5.764000000000001  -1.5132999999999992  0.08199999999999985 
C  5.480700000000001  2.975600000000001  -2.2002 
H  -2.7635999999999994  3.128700000000001  -1.1931000000000003 
H  -3.9917999999999996  5.073200000000001  -0.9036 
H  -3.1346  6.7276  0.5076 
H  -1.0863999999999994  6.506200000000001  1.5027 
H  0.6189  6.1892000000000005  2.6022 
H  2.5136000000000003  5.7673  3.8123999999999993 
H  3.6994000000000007  3.8015999999999996  3.4849000000000006 
H  2.9543  2.2824  1.9836 
H  -2.5187  -0.29029999999999934  -2.0094000000000003 
H  -3.301799999999999  1.5050999999999997  -5.4914000000000005 
H  -0.5640999999999998  3.1045000000000007  -3.0725000000000002 
H  -3.8598999999999997  -1.4827999999999992  -3.8161 
H  -4.843399999999999  -0.5672999999999995  -3.6420000000000003 
H  -4.226999999999999  -0.8072999999999997  -5.05 
H  -1.1719  4.2289  -5.1449 
H  -2.3968999999999996  3.7474  -5.9518 
H  -1.0842  3.2168  -6.1416 
H  3.2386999999999997  -0.8626999999999994  0.6231 
H  6.4597999999999995  0.6625000000000005  -1.3022 
H  3.0616000000000003  2.755  -1.1535000000000002 
H  6.4803999999999995  -1.2843999999999998  0.5660999999999996 
H  6.0441  -1.9779  -0.6995000000000005 
H  5.304  -2.0888  0.7242999999999995 
H  6.3634  2.8418  -2.3464 
H  5.4436  3.7550999999999997  -1.8227000000000002 
H  5.0619  2.9706  -3.025 
