54
unq_CSD-ICACEU-02-a
N  0.29389999999999983  -0.774  1.7938 
N  -1.8028  -0.6100999999999999  -0.5588000000000002 
Si  1.6570999999999998  -1.5869  2.5508999999999995 
Si  -3.1933000000000002  0.23059999999999992  -1.2160000000000002 
C  -0.9187000000000003  -0.5927  2.5484999999999998 
C  -2.0705  -1.3559999999999999  2.2284999999999995 
C  -2.0126  -2.3904  1.1479999999999997 
C  -1.8941  -2.0082  -0.20199999999999996 
C  -0.9626000000000001  0.3330000000000002  3.5915999999999997 
H  -0.19169999999999998  0.8468  3.8030999999999997 
C  -2.1249000000000002  0.5058000000000002  4.3177 
H  -2.1494  1.1317  5.0325999999999995 
C  -3.2481  -0.2277  4.0085 
H  -4.0422  -0.09379999999999988  4.5119 
C  -3.2469  -1.1614  2.9734 
C  -4.5205  -1.927  2.7002999999999995 
H  -4.7323  -2.4934  3.4728000000000003 
H  -4.401  -2.4888  1.9065000000000003 
H  -5.2548  -1.2965  2.5451999999999995 
C  -2.2356  -4.2385  2.899 
H  -3.1692  -4.4936  3.0506 
H  -1.9877000000000002  -3.5198  3.5187 
H  -1.6571000000000002  -5.0143  3.0506 
C  -2.0694  -3.7579000000000002  1.4805000000000001 
C  -1.979  -4.6985  0.45299999999999985 
H  -1.9799000000000002  -5.6231  0.6703999999999999 
C  -1.8891  -4.3231  -0.8613000000000002 
H  -1.8487  -4.9857  -1.5413000000000001 
C  -1.8561  -2.9819999999999998  -1.1991 
H  -1.8082000000000003  -2.7245999999999997  -2.1122 
C  2.6622000000000003  -2.4694  1.2586999999999997 
H  2.0784000000000002  -3.0598  0.7382999999999997 
H  3.3586  -3.0026  1.6943000000000001 
H  3.0789999999999997  -1.8125  0.6638999999999999 
C  2.7031  -0.3706999999999998  3.4850000000000003 
H  2.979  0.35250000000000004  2.8842999999999996 
H  3.4972000000000003  -0.825  3.8358999999999996 
H  2.1849999999999996  0.0022999999999999687  4.2297 
C  0.9791999999999996  -2.8664  3.7228000000000003 
H  0.30180000000000007  -2.4556  4.2997 
H  1.7062  -3.2212  4.2757 
H  0.5731000000000002  -3.5965  3.2103 
C  -3.1198  0.32620000000000005  -3.077 
H  -2.2643000000000004  0.7175000000000002  -3.3504 
H  -3.8548  0.8846000000000003  -3.4051 
H  -3.2012  -0.5755999999999999  -3.4532000000000003 
C  -4.7353000000000005  -0.7117  -0.7552000000000001 
H  -4.6515  -1.642  -1.0556 
H  -5.5123  -0.2986  -1.1869 
H  -4.8522  -0.6922999999999999  0.21760000000000002 
C  -3.2865  1.935  -0.48 
H  -3.2693000000000003  1.8698000000000001  0.4975999999999998 
H  -4.1178  2.3687  -0.7646000000000002 
H  -2.5211  2.4648  -0.7865000000000002 
