13
unq_CSD-WEBVIL-02-b
N  -0.47540000000000004  0.7010000000000001  1.9663000000000004 
N  1.8179  -0.5430999999999999  0.9483999999999995 
N  -0.2797999999999998  1.5720999999999998  3.9605999999999995 
N  2.6142000000000003  -1.5591  0.5798000000000005 
N  -1.7022999999999997  0.8540999999999999  2.4730000000000008 
C  0.3722000000000003  1.1434000000000002  2.904 
N  3.483  -0.6741999999999999  2.363100000000001 
N  -1.5875999999999997  1.3777  3.660400000000001 
N  3.6062000000000003  -1.6284999999999998  1.4284 
C  2.3695  -0.025700000000000056  2.0375999999999994 
C  1.8411  1.1531000000000002  2.7688000000000006 
H  2.2394  1.178  3.6529000000000007 
H  2.1096000000000004  1.9591000000000003  2.300700000000001 
