46
unq_CSD-FEWYOY-02-a
N  -0.6613999999999987  -1.7193  0.30549999999999944 
N  0.6613000000000007  -1.7193  -0.3055000000000003 
Si  -0.7515000000000001  -2.5342000000000002  1.8277999999999999 
C  -2.269399999999999  -1.9355  2.7616999999999994 
H  -2.9970999999999997  -1.8  2.1048 
H  -2.5573999999999995  -2.6604  3.372 
C  -2.1359999999999992  -0.6513  3.5866999999999996 
H  -1.4573999999999998  -0.7784  4.2825999999999995 
H  -2.9975999999999994  -0.4401999999999999  4.0040000000000004 
H  -1.8688999999999991  0.08679999999999977  3.0004999999999997 
C  0.8146000000000004  -2.3535000000000004  2.8555 
H  1.5915  -2.439  2.2474999999999996 
H  0.8318000000000012  -1.4354  3.2260999999999997 
C  1.0081000000000007  -3.3271  4.0026 
H  0.29070000000000107  -3.2031  4.660799999999999 
H  1.874600000000001  -3.161  4.4286 
H  0.9815000000000005  -4.244  3.6605999999999996 
C  -1.0376999999999992  -4.37  1.5316 
H  -0.23109999999999964  -4.7506  1.1012999999999993 
H  -1.1495999999999995  -4.818  2.4067 
C  -2.2520999999999995  -4.69  0.6600000000000001 
H  -2.1500999999999992  -4.2597000000000005  -0.2140000000000004 
H  -3.063599999999999  -4.3547  1.0946999999999996 
H  -2.3211999999999993  -5.6604  0.5406999999999993 
Si  0.7515000000000001  -2.5342000000000002  -1.8278000000000003 
C  2.269300000000001  -1.9355  -2.7616000000000005 
H  2.9971000000000014  -1.8  -2.1048000000000004 
H  2.5574000000000012  -2.6604  -3.3720000000000003 
C  2.136000000000001  -0.6513  -3.5866000000000002 
H  1.4573999999999998  -0.7784  -4.2826 
H  2.9976000000000003  -0.4401999999999999  -4.0040000000000004 
H  1.8688000000000002  0.08679999999999977  -3.0005000000000006 
C  -0.8145999999999987  -2.3535000000000004  -2.8555 
H  -1.591499999999999  -2.439  -2.2475000000000005 
H  -0.8318999999999992  -1.4354  -3.2261 
C  -1.0080999999999998  -3.3271  -4.0026 
H  -0.2906999999999993  -3.2031  -4.6608 
H  -1.8746999999999998  -3.161  -4.4286 
H  -0.9814999999999996  -4.244  -3.6606000000000005 
C  1.037700000000001  -4.37  -1.5316 
H  0.23110000000000142  -4.7506  -1.1013000000000002 
H  1.1496000000000013  -4.818  -2.4067000000000003 
C  2.2521000000000004  -4.69  -0.6600000000000001 
H  2.1500000000000004  -4.2597000000000005  0.21399999999999952 
H  3.063600000000001  -4.3547  -1.0947000000000005 
H  2.3211000000000013  -5.6604  -0.5407000000000002 
