71
unq_CSD-FOMZIQ-02-a
N  -1.5588000000000015  -1.019  0.27059999999999995 
N  -0.4169000000000018  -0.052100000000000035  -1.8756 
C  -2.9368000000000016  -3.0369  0.3207 
C  -3.258800000000001  -4.244199999999999  0.9311000000000003 
C  -2.6330000000000027  -4.6582  2.0741 
C  -1.6639000000000017  -3.8048  2.6184 
C  -1.3232999999999997  -2.6109  2.052 
C  -1.9755000000000003  -2.2196  0.8825999999999996 
C  -2.3698000000000015  -0.23099999999999987  -0.5678000000000001 
C  -1.7514000000000003  0.30580000000000007  -1.727 
C  0.23729999999999762  -0.1722999999999999  -3.1112 
C  -0.34220000000000184  -0.8186  -4.1895 
C  0.38589999999999947  -1.0564  -5.372199999999999 
C  1.671199999999999  -0.5368999999999999  -5.4619 
C  2.2269000000000005  0.1149  -4.4425 
C  1.533999999999999  0.33519999999999994  -3.2436 
C  -3.6905  0.2524000000000002  -0.07509999999999994 
N  -4.5227  0.6303999999999998  -0.9929999999999999 
C  -5.751000000000001  1.2821000000000002  -0.6854999999999998 
C  -5.7354  2.5548  -0.17799999999999994 
C  -6.9938  3.2640000000000002  -0.0411999999999999 
C  -8.141300000000001  2.5949  -0.3854000000000002 
C  -8.150100000000002  1.3782  -0.8841000000000001 
C  -6.932  0.7185000000000001  -1.0856 
C  -3.9314  0.32719999999999994  1.3870999999999998 
Si  -5.389700000000001  -0.5448999999999999  2.2565000000000004 
C  -4.7120000000000015  -1.2647  3.8173 
C  -6.6876000000000015  0.6851000000000003  2.7096000000000005 
C  -6.164900000000001  -1.8977  1.2283000000000004 
C  -2.3015000000000008  1.4250000000000003  -2.564 
Si  -3.4346999999999994  1.1324999999999998  -4.0468 
C  -2.4663000000000004  1.4744000000000002  -5.6149000000000004 
C  -4.784500000000001  2.4052  -3.9997 
C  -4.171700000000001  -0.5434999999999999  -4.0409 
H  -3.388300000000001  -2.7016999999999998  -0.5325000000000002 
H  -3.942400000000003  -4.6248000000000005  0.5118999999999998 
H  -2.689700000000002  -5.4795  2.4095 
H  -1.1919000000000004  -4.0773  3.3951 
H  -0.6508000000000003  -1.9271  2.5124999999999997 
H  -1.0985000000000014  -1.0857999999999999  -4.0777 
H  -0.17379999999999995  -1.4062999999999999  -6.0489 
H  2.1911999999999985  -0.7651999999999999  -6.2547999999999995 
H  2.9880999999999993  0.5034999999999998  -4.3572 
H  1.8689  0.8774000000000002  -2.6802 
H  -4.993200000000002  3.1077000000000004  0.011699999999999822 
H  -6.636700000000001  3.9356999999999998  0.2471000000000001 
H  -8.5531  3.2146  -0.31190000000000007 
H  -8.9845  0.7038000000000002  -1.1945000000000001 
H  -7.004000000000001  -0.19100000000000006  -1.3269 
H  -3.194700000000001  0.23640000000000017  2.0269999999999997 
H  -4.074999999999999  1.3315000000000001  1.5710000000000002 
H  -5.440500000000002  -1.8603  4.277699999999999 
H  -4.160700000000002  -1.9805  3.5863 
H  -4.450700000000001  -0.5649  4.439500000000001 
H  -6.367600000000001  1.3716  3.2039000000000004 
H  -7.167900000000001  0.9976000000000003  1.9975999999999998 
H  -7.394200000000001  0.18299999999999983  3.2921 
H  -6.882800000000001  -2.3545  1.6152000000000002 
H  -6.398800000000001  -1.6333  0.37950000000000017 
H  -5.482400000000002  -2.7016999999999998  1.3798 
H  -2.8370999999999995  2.066  -2.0183 
H  -1.4701000000000022  1.9859  -2.6949 
H  -1.6586999999999996  1.1312000000000002  -5.7252 
H  -2.930200000000003  0.9441999999999999  -6.196 
H  -2.1620000000000026  2.3331  -5.5487 
H  -4.477  3.2546  -3.9453 
H  -5.302300000000001  2.2129000000000003  -4.9456 
H  -5.495400000000002  2.1595000000000004  -3.5481 
H  -4.858500000000001  -0.7384999999999999  -3.4305 
H  -4.345600000000001  -0.7251999999999998  -4.8868 
H  -3.688100000000002  -1.3662  -3.8276 
