32
unq_CSD-RIRNIP-02-a
N  -1.8268999999999997  0.8937000000000008  -0.02850000000000108 
N  -0.47109999999999985  -0.2895000000000003  -1.8849 
N  -3.9216999999999995  0.45860000000000056  -1.0830999999999982 
N  -3.8204  -0.044599999999999085  -3.5040999999999993 
C  -2.4734999999999996  1.6662  1.084500000000002 
C  -3.2474  2.8749000000000002  0.5318000000000005 
H  -3.9485  2.5677000000000003  -0.047999999999998266 
H  -2.6483999999999996  3.4399999999999995  0.03790000000000049 
H  -3.6279999999999997  3.3709000000000007  1.2591 
C  -3.3991  0.7721999999999998  1.9105999999999987 
H  -4.0981  0.4299999999999997  1.3492999999999995 
H  -3.7848999999999995  1.2849000000000004  2.625 
H  -2.8956  0.04230000000000089  2.277100000000001 
C  -1.3695999999999997  2.1960999999999995  1.996500000000001 
H  -0.7780999999999998  2.7589000000000006  1.4895999999999994 
H  -0.8750999999999998  1.4602000000000004  2.3615999999999993 
H  -1.7607  2.704600000000001  2.7108999999999988 
C  -2.6249  0.4200999999999997  -1.0487000000000002 
C  -4.471299999999999  -0.2555999999999994  -2.2285000000000004 
H  -4.4483999999999995  -1.2045999999999992  -2.030899999999999 
H  -5.404299999999999  -0.0032999999999994145  -2.3201 
C  -2.4229  -0.2203999999999997  -3.3795 
H  -1.9135  -0.4073999999999991  -4.134 
C  -1.8213999999999997  -0.11769999999999925  -2.1754999999999995 
C  0.40549999999999997  -0.24899999999999878  -3.054499999999999 
H  1.3152000000000004  -0.37429999999999986  -2.7767999999999997 
H  0.31830000000000025  0.6015999999999995  -3.489799999999999 
H  0.1583000000000001  -0.9478999999999989  -3.6643999999999988 
C  -4.160299999999999  1.1964000000000006  -4.1998999999999995 
H  -5.1152  1.2779000000000007  -4.26 
H  -3.7838  1.1815999999999995  -5.081799999999999 
H  -3.8056  1.9428999999999998  -3.7116999999999987 
