49
unq_CSD-RIZTAX-02-a
N  1.4746000000000006  0.6600999999999999  -1.3536000000000006 
N  0.42020000000000124  2.1045999999999996  0.006699999999999484 
N  -0.08460000000000001  3.379999999999999  0.34059999999999935 
C  1.3206000000000007  2.1023999999999994  -1.1868000000000003 
C  2.6096000000000004  2.8751999999999995  -0.9507000000000003 
C  2.6053000000000015  4.263999999999999  -1.1101000000000005 
H  1.8208000000000002  4.701699999999999  -1.4194000000000004 
C  3.7407000000000004  5.007999999999999  -0.8182000000000005 
H  3.7225  5.9536999999999995  -0.9093000000000004 
C  4.9003  4.3764  -0.3949000000000007 
H  5.6750000000000025  4.886999999999999  -0.19200000000000017 
C  4.924100000000001  2.997299999999999  -0.2702 
H  5.7216000000000005  2.5592999999999986  0.0036999999999993705 
C  3.7806000000000015  2.251199999999999  -0.5462000000000002 
H  3.803000000000001  1.3056999999999999  -0.4566000000000008 
C  2.1213000000000015  0.12249999999999872  -2.4585000000000004 
C  2.5912000000000006  0.8730999999999991  -3.5494000000000003 
H  2.530100000000001  1.8211999999999993  -3.5310000000000006 
C  3.1476000000000006  0.2345999999999986  -4.658600000000001 
H  3.4506000000000014  0.7548999999999992  -5.3933 
C  3.2666000000000004  -1.1449000000000007  -4.708200000000001 
H  3.6416000000000004  -1.5695000000000006  -5.470000000000001 
C  2.8291000000000004  -1.8962000000000003  -3.6238 
H  2.9145000000000003  -2.8425000000000002  -3.6423000000000005 
C  2.2683  -1.2783000000000007  -2.5168000000000004 
H  1.977500000000001  -1.8089000000000004  -1.7838000000000003 
C  0.24560000000000137  3.925799999999999  1.5908999999999995 
C  1.4850000000000012  3.667299999999999  2.1827999999999994 
H  2.138300000000001  3.165899999999999  1.7086999999999994 
C  1.7692000000000014  4.1371  3.4567999999999994 
H  2.6148000000000007  3.9504  3.8470999999999993 
C  0.8340000000000014  4.8767  4.172599999999999 
H  1.0307000000000013  5.1882  5.047699999999999 
C  -0.38649999999999984  5.1508  3.5870999999999995 
H  -1.0284999999999993  5.6654  4.0619 
C  -0.6900999999999993  4.685799999999999  2.3146999999999993 
H  -1.5362999999999989  4.882899999999999  1.9311999999999996 
C  -1.0864999999999991  3.9555999999999987  -0.48460000000000036 
C  -1.0729999999999986  5.329099999999999  -0.7399000000000004 
H  -0.4015999999999984  5.8759999999999994  -0.3492000000000006 
C  -2.0321  5.897599999999999  -1.5596000000000005 
H  -2.0173999999999985  6.8347  -1.7148000000000003 
C  -3.013299999999999  5.1198999999999995  -2.1586000000000003 
H  -3.666499999999999  5.5139  -2.7255000000000003 
C  -3.0191999999999997  3.756499999999999  -1.9121000000000006 
H  -3.6830999999999996  3.2119  -2.3189 
C  -2.0717999999999996  3.1729000000000003  -1.0826000000000002 
H  -2.0951999999999984  2.237  -0.9227000000000003 
H  0.8664000000000005  2.536999999999999  -1.9737000000000005 
