30
unq_CSD-ROVQUQ-02-a
N  0.4817  -0.16210000000000002  -2.0105000000000004 
N  1.8892000000000007  0.7159000000000001  0.013000000000001677 
N  3.6814999999999998  1.3632  -5.2209 
N  5.4505  2.0554  -2.9346999999999994 
C  -0.26259999999999994  -0.6755  -3.015699999999999 
H  -1.0732999999999997  -1.0789  -2.8033 
C  0.1164000000000005  -0.6296999999999999  -4.3077000000000005 
H  -0.4507999999999992  -0.982  -4.9559 
C  1.3379000000000012  -0.0679  -4.7041 
H  1.6077000000000012  -0.044100000000000014  -5.5954 
C  2.1265  0.45699999999999996  -3.6682999999999986 
C  3.342600000000001  1.1395  -3.9705000000000013 
C  4.863300000000001  2.0025999999999997  -5.3414 
C  5.414100000000001  2.435  -6.451699999999999 
H  5.066600000000001  2.3786  -7.312299999999999 
C  6.590300000000001  2.9775  -6.0794 
H  7.194100000000001  3.3667000000000002  -6.672799999999999 
C  6.802300000000001  2.8876  -4.693200000000001 
H  7.5359  3.1871  -4.207000000000001 
C  5.734300000000001  2.2888  -4.242000000000001 
C  4.2783999999999995  1.5376  -2.8033 
C  3.7583  1.3879000000000001  -1.436799999999998 
C  4.4421  1.8625  -0.31329999999999814 
H  5.2758  2.2615  -0.41629999999999967 
C  3.8850999999999996  1.741  0.9481000000000002 
H  4.3392  2.0272  1.7079000000000022 
C  2.6228999999999996  1.1747  1.0313000000000017 
H  2.2510000000000012  1.1061  1.8788000000000018 
C  2.4656000000000002  0.8366  -1.2396999999999991 
C  1.6873000000000005  0.3601  -2.360900000000001 
