52
unq_CSD-RUGSAN-02-c
N  0.2582  0.057600000000000096  2.0629 
N  1.4651  -1.2549  0.7858999999999998 
C  1.5541  -0.5876999999999999  2.0606999999999998 
C  -0.03069999999999995  0.9689000000000001  3.0815 
C  0.9357000000000001  1.6162  3.8524000000000003 
C  0.578  2.5037  4.834700000000001 
C  -0.7369  2.7975  5.105900000000001 
C  -1.7094999999999998  2.1602  4.3542 
C  -1.3664  1.2687  3.3783000000000003 
C  2.5543  -2.0848  0.3780000000000001 
C  2.3456  -3.1431  -0.5145999999999997 
C  3.4294000000000002  -3.9452  -0.8969 
C  4.6909  -3.7268  -0.3971999999999998 
C  4.8803  -2.7439999999999998  0.5210999999999997 
C  3.8215000000000003  -1.9121  0.9183000000000003 
N  3.6734  -0.24029999999999996  3.893 
C  2.8192  -1.1814  4.1001 
N  1.7967999999999997  -1.4613  3.2353000000000005 
C  4.6788  0.005900000000000016  4.8561000000000005 
C  4.5433  -0.2084999999999999  6.2292 
C  5.5892  0.08540000000000014  7.0962000000000005 
C  6.7684999999999995  0.6055999999999999  6.624300000000001 
C  6.9067  0.8359000000000001  5.278899999999999 
C  5.8699  0.5500000000000003  4.405500000000001 
C  0.8915000000000001  -2.5017  3.6026 
C  0.7036000000000001  -3.5938  2.7931999999999997 
C  -0.14800000000000002  -4.6242  3.1797000000000004 
C  -0.7895  -4.526999999999999  4.4182999999999995 
C  -0.6028  -3.4588  5.225499999999999 
C  0.22799999999999998  -2.4242999999999997  4.8112 
H  2.1905  0.057600000000000096  2.1184000000000003 
H  1.8462999999999998  1.4415  3.694400000000001 
H  1.2511999999999999  2.9226000000000005  5.3387 
H  -0.9669  3.4111  5.7786 
H  -2.6164  2.3428999999999998  4.5187 
H  -2.048  0.8458000000000001  2.8893000000000004 
H  1.4857  -3.3118  -0.8542000000000001 
H  3.2908999999999997  -4.6480999999999995  -1.5076 
H  5.4143  -4.2509999999999994  -0.6875999999999998 
H  5.7339  -2.6169  0.8948 
H  3.9700999999999995  -1.2349999999999999  1.5525000000000002 
H  2.9015  -1.6996  4.879600000000001 
H  3.7394999999999996  -0.5539999999999998  6.570900000000001 
H  5.4871  -0.0734999999999999  8.0166 
H  7.471699999999999  0.8001  7.215800000000001 
H  7.7122  1.1913  4.9479 
H  5.9757  0.7286999999999999  3.4894000000000007 
H  1.1524999999999999  -3.6454  1.9689000000000005 
H  -0.28769999999999996  -5.3688  2.6224 
H  -1.3637000000000001  -5.2179  4.6938 
H  -1.0293  -3.4170999999999996  6.062600000000001 
H  0.3369000000000001  -1.6659  5.3557999999999995 
