49

Co  0.0  0.0  0.0 
O  1.1659179923991227  1.3726744825340056  0.0 
C  2.5155520396235618  1.370328955578441  -0.4483519232432342 
C  3.177666008763604  0.10498952725773458  -0.4884232721931502 
C  4.507125095675804  0.16913633782381465  -0.9367804210386071 
C  5.119988136305677  1.3412306365609097  -1.3477957714793194 
C  4.43015272006463  2.5334090632910495  -1.3109615843866635 
C  3.117258156791728  2.5797109584662774  -0.8407860956256017 
C  2.604678358879046  -1.1043501604266508  0.024513588318177404 
C  1.1659179923991227  -1.3726744825340056  0.0 
C  0.779218102998107  -2.6039122060473305  0.5168093688537133 
C  1.6592495727883807  -3.582806683286738  0.9642304843690321 
C  2.9959967481510157  -3.3396392031250803  0.9437457155906892 
C  3.479890905395449  -2.134544691608932  0.4797967928649739 
C  2.363728302003871  3.8619164867215154  -0.7895630416839252 
C  2.417249331035654  4.74178967615416  -1.8649507856949146 
C  1.8106053221833502  5.977574471882653  -1.7982514965689855 
C  1.1488388900409183  6.346433055212118  -0.701550158558639 
C  1.1108369160929288  5.488573092793221  0.426386579407961 
C  1.6901138921739556  4.2604193815886156  0.3898173760151626 
H  5.020998892304693  -0.6565756932672286  -0.9648191950797439 
H  6.031360238412855  1.3119852469869073  -1.671261687287159 
H  4.863844698880383  3.3520535192771117  -1.6066179764943809 
H  -0.18779343301343365  -2.8032487956624292  0.5557643847213405 
H  1.3243351958147942  -4.437369957337359  1.275125114011106 
H  3.6137759540697934  -4.0122828864953135  1.2534157463597269 
H  4.457407969786855  -1.973853185496858  0.46369962891970173 
H  2.8995436542244795  4.453506244768819  -2.6797948069704836 
H  1.8392113712057454  6.585706188922362  -2.5630469258765087 
H  0.7171921752655418  7.207967035079555  -0.6511224364466728 
H  0.6520931570023594  5.79066354852494  1.2449865305753647 
H  1.6549656075169406  3.6537174536394526  1.15449091989415 
N  -1.2869343417595165  1.2869343417595165  0.0 
C  -2.264461520251778  2.3753979817050555  -0.19309844594264913 
H  -1.7361298028302188  0.5277285224356802  0.1741731370168825 
H  -0.7864418628629987  1.4774755792129184  0.723836110868852 
H  -2.7285804393074553  2.539933029274458  0.6312775526744401 
H  -2.895498045668875  2.1218958016019904  -0.8702112048480699 
H  -1.8053241906519806  3.174004947343203  -0.46597714976945603 
C  -1.3152186130069785  -1.3152186130069787  1.3081903724320894e-20 
F  -1.2775463721779405  -1.6105492452954255  -2.339648056845949 
N  -3.349183131825929  -3.3263836353228324  -0.005903321003046443 
C  -1.7831602735199206  -1.9340057043080336  -1.1371652245806538 
F  -3.212226775482348  -3.4440147239519945  -2.2527197205882477 
C  -2.770672122883667  -2.898434798818787  -1.109037853083083 
F  -3.4838389586298266  -3.2000974188957083  2.2385117608943013 
C  -2.8997105108286148  -2.768843728389312  1.0953729500345006 
F  -1.607560089981488  -1.3261581701838219  2.3595322517247204 
C  -1.9266416529443338  -1.8020524631081563  1.1510572134474573 
