54

Co  0.0  0.0  0.0 
C  2.6141882253086983  -1.4346542457221005  -0.018338368977435016 
C  3.322807192551868  -0.2802626130081596  -0.4651932644225689 
H  4.190892806914755  -0.3655247042827898  -0.6744639788756481 
C  2.903073370199727  1.0092922855119144  -0.4274236724662195 
C  0.5961741911498956  -2.6221090188296268  0.56267228476513 
C  0.8784113375767348  -3.9426012847874636  0.21099774954487613 
H  1.5677630018135182  -4.128937236914666  -0.3584405227541012 
C  0.08491605287352688  -4.960347978045082  0.6959183941012546 
H  0.2793426803539205  -5.825566810541579  0.46568888161426125 
C  -0.979874204689076  -4.689630031854387  1.5244148099113128 
H  -1.5423251012499049  -5.433299372360278  1.7560314564405846 
C  -1.2579279182783454  -3.3881186401954535  1.876248406574918 
H  -1.9733620976720432  -3.25569592709423  2.5131702699224934 
C  -0.47224820647831156  -2.3596800586257536  1.3911851278114735 
H  -0.7089053046943103  -1.4582553475944122  1.5643773568693913 
C  3.507839372709412  -2.514314132624876  0.5003407277312031 
C  3.532322670701318  -2.8356415874066814  1.8437193284700037 
H  2.9306131492740866  -2.472562193199692  2.4370479855615845 
C  4.45766402843657  -3.7443894007338026  2.3362872460589115 
H  4.374942646200724  -3.9889812796772217  3.342889692745738 
C  5.3495775356524735  -4.320774534855699  1.480177619428591 
H  5.882789060261903  -4.880485990523869  1.6821914714721948 
C  5.320341145500015  -4.034622439760087  0.13972343074354504 
H  5.893929976356228  -4.377651111171966  -0.5423679734732038 
C  4.406969259084054  -3.130977961018395  -0.3581206343457444 
H  4.431830247569575  -2.921317145490219  -1.2600280207683237 
C  3.845252651267371  2.1121482860251724  -0.722357672640504 
C  5.18745225039066  2.057194908453088  -0.3583790161141479 
H  5.4665221090563225  1.3723589769134188  0.15755530224094855 
C  6.054860926854795  3.0838976201216517  -0.6783234798060862 
H  6.9464842464946575  3.094118713833646  -0.3110501822226913 
C  5.62623878741681  4.182090009327091  -1.36281602021457 
H  6.263560969861603  4.885091973737774  -1.6485083088723516 
C  4.296996901116925  4.281534177313802  -1.7092770499990255 
H  4.0516408985436385  5.076797428770201  -2.1653135977495928 
C  3.429429512782786  3.2562473629874424  -1.3893393137633456 
H  2.5562272195372744  3.3333730220621507  -1.7253378521278753 
S  1.3040452781633003  1.4984878753263233  1.1725074735678347e-15 
N  1.3040452781633003  -1.4984878753263238  4.440892098500626e-16 
C  -1.3152186130069785  1.3152186130069785  0.0 
H  -0.6495199803430409  1.6962841713332992  0.5951204085954485 
H  -0.9599851374477317  1.3834789675349293  -0.8990352394883178 
C  -2.465649396204062  2.1509445234565856  0.0653253830889467 
H  -3.1804531296608394  1.7503927465423887  -0.4351780800830183 
H  -2.257170981584706  3.0110827177451807  -0.30712371056514465 
H  -2.734740998366073  2.255336496994069  0.9808912384520841 
P  -2.3562045056122205  -2.3554722548216596  0.0050628761144153045 
F  -2.175760915988806  -2.5333074052904356  -1.553261400222692 
F  -3.4680375092512596  -3.47097815351779  -0.007355738668680556 
F  -3.4336185471612994  -1.2480762665820495  -0.24952164482843614 
F  -1.2374368670764584  -1.237436867076458  2.337823547182644e-17 
F  -2.510105904795168  -2.1614389215943244  1.5495126794185636 
F  -1.292944932194001  -3.4673993131964895  0.25556322818682997 
