79

Ni  0.0  0.0  0.0 
P  1.2724242000999506  1.5687691528711292  1.8112887754234776e-15 
N  1.272424200099951  -1.5687691528711292  1.6653345369377348e-16 
C  2.547107323446013  -1.4779289424174835  0.2140616528514539 
H  3.010417359331514  -2.299706797776616  0.32582800328451184 
C  3.355189105632091  -0.27324353568240634  0.3043163707256051 
C  2.9730396655674234  1.0215183203131506  0.2655394224545666 
C  4.192802344746569  1.921283029108361  0.3360787397782297 
H  4.394752647379548  2.3127984530800196  -0.5504680260828676 
H  4.0536795921569935  2.6543211137082214  0.9867896404384824 
C  5.299375050012938  1.0107700818172956  0.7839437091326236 
H  5.4456200063907385  1.0995843664078628  1.7590753646472668 
H  6.142243065095114  1.2364872654780887  0.3163751877887537 
C  4.8639569963477545  -0.4148467407132026  0.438347465141896 
H  5.272915888884632  -0.7196956976962867  -0.41001772605902437 
H  5.102551541578039  -1.0483817564808438  1.1606749440478805 
C  0.8035924284182917  2.5953181177412277  1.4632890051476628 
H  -0.14460045788975617  2.8774423481864697  1.316936147469711 
C  0.7992552748583606  1.695890918769583  2.7051443722694075 
H  0.22251408332661438  0.9081883541580829  2.538823364290806 
H  1.7177376269509412  1.3714885080843664  2.880137928825471 
C  0.2836697750110131  2.454699292724007  3.93213491174548 
H  -0.6721422124483922  2.677261082239689  3.8019426520811876 
H  0.3558941274413323  1.8737499648181002  4.730414443815365 
C  1.069655917252222  3.732744861972081  4.167886809150705 
H  2.0038855047064885  3.505022676495536  4.402890520114691 
H  0.6738466190162036  4.225949453982285  4.929441442680019 
C  1.0619189065796686  4.622001048866647  2.930316890828679 
H  1.6153056473925695  5.425160451060414  3.1002842399291044 
H  0.1361732086431291  4.921927382284711  2.7477242916511155 
C  1.6045153436916104  3.8831604311258583  1.709114959119631 
H  2.557681063856002  3.6584408225366647  1.853812427718997 
H  1.5437205645679972  4.468597353645105  0.9130862821346097 
C  1.4839979262098586  2.7217379256760243  -1.4227365804521894 
H  2.187767091203864  3.3838218614157536  -1.1651747151866938 
C  1.9877838046517504  1.986038936511357  -2.6722789550936867 
H  2.828244144788764  1.508326490018879  -2.458850407043111 
H  1.3163999716922299  1.3157317003731017  -2.9550968612122483 
C  2.2369638017817026  2.975735608681671  -3.8150351084900698 
H  2.975854645980104  3.5855841407292623  -3.5654588710010113 
H  2.5120087227501164  2.4782009404537084  -4.625585819649333 
C  0.9846352195421866  3.7980588502108685  -4.1260600247699815 
H  1.1966427295866422  4.4665914689716075  -4.824771713048971 
H  0.27924259835401966  3.2000230504356355  -4.479366240623174 
C  0.4650780283392678  4.513098811920358  -2.8848128462322613 
H  -0.37612321227746004  4.986487339888823  -3.1043047922638998 
H  1.1282287695714697  5.186420953082303  -2.589763564544796 
C  0.20911365900705015  3.5165341694178376  -1.7492881019196436 
H  -0.5110364128972822  2.891167028430592  -2.014839514850649 
H  -0.09109505119481898  4.005363324807915  -0.9423812565158092 
C  0.7714778980212824  -2.943643847501984  0.021273140281229785 
C  0.5253628985751195  -3.522790427696525  1.2655489359538057 
C  -0.012256259400290181  -4.816037787441533  1.2888145219206604 
H  -0.18833035944615384  -5.2375264900909  2.121690115771287 
C  -0.2881828536997637  -5.481703987015118  0.11564405463827371 
H  -0.6517827718725395  -6.358605739884432  0.14813459663870948 
C  -0.04296278541019927  -4.891941115717762  -1.1021764303870054 
H  -0.24550448326586838  -5.362774181658774  -1.9019644302009293 
C  0.505208542036764  -3.597343394770074  -1.1755503813647619 
C  0.795972407254265  -2.774959695014866  2.545741354721123 
H  0.47878296801966336  -3.3047042488767495  3.3069181917910164 
H  0.3256476578087186  -1.9153542058758428  2.527619459096062 
H  1.7591841127163876  -2.618484575937761  2.6355491359574237 
C  0.7984800541431345  -2.956420749676097  -2.5003310285636364 
H  0.34529193881074416  -3.454413152554621  -3.211858483267082 
H  1.765640865228359  -2.965210685387647  -2.660301221197099 
H  0.47743145349257854  -2.0304261714799687  -2.4935246218979072 
Br  -1.5839191898578664  1.5839191898578664  0.0 
C  -1.2937473829822488  -1.2398794889499034  -0.459800567 
C  -1.601562203225019  -1.4938654694550033  -1.7919791134 
H  -1.1309417375171225  -1.0428217585005106  -2.480879663 
C  -2.60218398542082  -2.411889969420291  -2.121542410022 
H  -2.8231586547736818  -2.5626138747145775  -3.032700502 
C  -3.2683208079706407  -3.09759503004543  -1.14306436557 
H  -3.9596020908062854  -3.707191723557817  -1.368328076 
C  -2.9347449854640226  -2.896087320001541  0.14198826503 
H  -3.3668350933519986  -3.405606940434718  0.81710224434 
C  -1.9675509241539992  -1.9516175659140573  0.5112421903 
H  -1.7755298364628027  -1.8022912010877177  1.4301324877 
