108

Pd  0.0  0.0  0.0 
P  1.596743819465103  -1.3937392779856639  -3.208201214291582e-15 
C  4.325653851216753  -1.0763382102340584  0.6035198512024994 
C  2.973426207670683  -0.5132406155861786  0.2915567140666497 
C  2.780493758394611  0.9440750044023192  0.22284504290463075 
C  3.9704758148748724  1.7990228406447994  0.4423623829016098 
C  4.75187313786073  2.25419833151342  -0.6338342144462409 
C  5.94215427469822  2.96547297997762  -0.40373501900862424 
C  6.3288394089665925  3.267914671661316  0.8488980478020299 
C  5.571494310003754  2.8375798131454277  1.9485120212595737 
C  4.423486996795568  2.100611962541044  1.7166827392518946 
N  1.5967438194651007  1.3937392779856643  -2.817061370256243e-16 
C  1.819738770997567  -3.1677228085161366  0.19528311498354173 
C  2.242402432872065  -3.9530114290548606  -0.9267715099716168 
C  2.507062201713018  -5.307906788486228  -0.6989154331415116 
C  2.3154274717274963  -5.931711282434733  0.54930082359971 
C  1.9150748986089665  -5.152284009229065  1.581395680180531 
C  1.6413523890819735  -3.7797270107890184  1.459377797017857 
C  2.418615098739832  -3.421148596666761  -2.3763209999552855 
C  1.2012272148917305  -2.6253312135167057  -2.856549906765481 
C  3.6864476377226607  -2.526949075504368  -2.5021238991639945 
C  2.585593220873436  -4.54986175690259  -3.411963355519807 
C  2.600078446604665  -7.425940485051365  0.720285362518119 
C  3.066328253385813  -8.106741388769429  -0.464928545252648 
C  3.533914339267401  -7.633610068288133  1.8383394755972242 
C  1.2797412358986566  -8.04864026736239  1.2820832631326677 
C  1.2191094240237903  -3.04054978354681  2.770968493533128 
C  1.0731211660103477  -4.042206038092259  3.962293128656664 
C  -0.1891485072163681  -2.4194137764944896  2.55145901801481 
C  2.2094907867964686  -2.016925600362475  3.2185380053106196 
C  0.935129610553192  3.472459079286836  1.1070484028462046 
C  0.4907955098798684  4.76191292720981  0.9753036835764186 
C  0.39311030427645055  5.394944638330944  -0.2752284604811869 
C  0.7965214759325184  4.735515059559001  -1.4179110573661486 
C  1.2586222244936902  3.42348319041137  -1.3493679138710983 
C  1.3141482655557968  2.806525690840318  -0.08897906812267155 
C  0.9851684541937185  2.8023117068529477  2.448706788333023 
C  1.6116481922711205  3.6645093603027066  3.5100440599692346 
C  -0.4235474129422028  2.3322541068785445  2.882372268151126 
C  1.6883250218248822  2.681342403150986  -2.6018985713203757 
C  2.50486372185345  3.565762964779643  -3.56352286465126 
C  0.4911080047053311  2.1036132376475627  -3.3399881087385244 
H  4.271416522119444  -2.0330175376094584  0.6223258796227643 
H  4.950601640591145  -0.7925966695841096  -0.0676524207707019 
H  4.6168321357166535  -0.765177911568456  1.4599307485934934 
H  4.463801652846595  2.068930617473538  -1.5361198863130918 
H  6.489072980117788  3.2443969876025225  -1.1440656124820325 
H  7.134268031558506  3.784211425556346  0.9862730667361842 
H  5.844586375031334  3.0527588783673267  2.8421242827629976 
H  3.927137085860018  1.7562031820883928  2.4688392175603617 
H  2.8237940051275485  -5.835924712371968  -1.445580007606641 
H  1.7996983653025342  -5.580562328157336  2.4426440282765833 
H  1.056494850793381  -1.8973545710944666  -2.2555634835659633 
H  1.3494801494841804  -2.2762107842616404  -3.7423052077721946 
H  0.4374446668117584  -3.1982793521055175  -2.854438098041886 
H  3.3501628056146764  -5.086804194286993  -3.153646594498937 
H  1.8046738405092844  -5.10583926807665  -3.4067992059872436 
H  2.716702585378989  -4.183863364622764  -4.294703301023329 
H  3.611277773766896  -1.7852404565910447  -1.890083454272826 
H  4.449038648885246  -3.067539698801525  -2.2713481255281165 
H  3.7733561432246865  -2.1882661077098313  -3.398139824802217 
H  2.4237303049620027  -7.966856169145155  -1.1696051675498524 
H  3.9181595290143805  -7.761575956756001  -0.7383889124066618 
H  3.1449671862202404  -9.048527066143084  -0.28512357831205815 
H  4.394280214431031  -7.286781699715046  1.5856549418266126 
H  3.218265248161127  -7.1650686378250406  2.606743977941782 
H  3.61027525530839  -8.57625782583631  2.0469459608530287 
H  1.0164337400955992  -7.573797966902514  2.072752455872527 
H  0.5846913780787317  -7.9764279127350175  0.6188900175520886 
H  1.409844593238542  -8.97778148513133  1.4949162583466313 
H  -0.7896198841759556  -3.105412409884396  2.2722536089707748 
H  -0.510137726187907  -2.044992912246329  3.3765780868283533 
H  -0.1511498963662692  -1.7447349431914423  1.8705202193946124 
H  2.325625494136973  -1.360256893053924  2.5211719188161235 
H  1.8981572205144182  -1.5860852204688576  4.011938047886408 
H  3.046934512618221  -2.44200270004517  3.4055576711405897 
H  1.9216006177091376  -4.45081129446637  4.143074915649698 
H  0.7639944755931147  -3.569169075287527  4.739605968568789 
H  0.4444539881910907  -4.72854092877749  3.731516055790063 
H  0.23125053183678412  5.241244901670296  1.7699911206436096 
H  0.05333911849375306  6.286582306601339  -0.3399500939058351 
H  0.7631019000483727  5.167915630827251  -2.2729252314677537 
H  1.5318384446728515  2.0139915114230393  2.3653184139221453 
H  2.4874130060124435  3.922316925659774  3.233980063299429 
H  1.0637608374087542  4.437691078735329  3.6315827232146902 
H  1.6733320936409841  3.180365589184174  4.341111226447966 
H  -0.7978525389025259  1.7622618080691443  2.2026423938791284 
H  -0.37714529861405643  1.8276996101319627  3.7092300089981913 
H  -0.9771417922732124  3.101434682423051  3.00983804935585 
H  2.2485384030377986  1.939600951698088  -2.344001233787493 
H  3.2719440287808674  3.8962075409457286  -3.0911428536362244 
H  2.794541443853979  3.0736601727917043  -4.331703246784455 
H  1.957799021622294  4.29476194690523  -3.850291670173887 
H  -0.0037999547480351836  1.5278014357731986  -2.7551114632038245 
H  -0.061342746425894434  2.8292486530903083  -3.622756054994435 
H  0.7753996758057946  1.6081468789767817  -4.104167631605011 
Br  -1.654629867976521  1.654629867976521  0.0 
C  -1.3788582233137676  -1.3788582233137676  0.0 
C  -2.618821778986925  -1.1522995256591737  0.5874691967409313 
H  -2.8106553971707884  -0.30966242518610043  0.9782000501948407 
C  -3.5854032518711887  -2.161278806785389  0.6049610958635797 
H  -4.421117162155692  -2.007227978208148  1.0287619599160838 
C  -3.3399450833386255  -3.3715361338635086  0.016423527177974573 
H  -3.9908757182151104  -4.061238805801311  0.045080339651694 
C  -2.164680252095028  -3.57422256025893  -0.6007549227026177 
H  -2.0132444416912625  -4.3986257169530365  -1.0474288760065327 
C  -1.1561711193052586  -2.601214672555715  -0.5998012209931929 
H  -0.3196784027493984  -2.7832859823079534  -1.0129111498427692 
