47

Pd  0.0  0.0  0.0 
C  -0.28856  3.30291  -0.01999 
H  -1.36155  3.42087  -0.00788 
C  0.65911  4.33046  -0.08789 
H  0.47237  5.39448  -0.1322 
C  1.9142  3.7387  -0.10824 
H  2.88417  4.21911  -0.16803 
C  1.67294  2.39447  -0.05237 
C  2.59167  1.26836  -0.05686 
H  3.66888  1.36269  -0.11057 
C  1.89409  -2.24783  -0.02155 
N  0.36747  2.12987  0.0 
N  1.93767  0.0192  0.0 
N  2.59894  -1.17501  -0.02126 
N  2.51446  -3.5178  -0.02694 
H  3.53993  -3.60525  -0.03052 
H  1.93348  -4.36898  -0.01161 
S  0.09486  -2.14907  0.0 
N  -1.78891  0.0  -0.21109 
N  -0.21109  0.0  -1.78891 
C  -3.09862  0.02453  0.3833 
C  -4.21304  0.03021  -0.6795 
C  -3.93852  0.01268  -2.02461 
C  -2.04474  -0.00156  -3.93119 
C  -0.70556  0.02199  -4.21449 
C  0.36708  0.0472  -3.10852 
C  -2.52059  -0.01104  -2.51599 
C  -1.60965  0.01216  -1.5914 
H  -3.22184  0.07653  1.48383 
H  -5.24552  0.05254  -0.35296 
H  -4.75164  0.01369  -2.74129 
H  -2.77297  -0.0186  -4.73788 
H  -0.39033  0.02574  -5.25288 
H  1.4661  0.07465  -3.24938 
C  0.0  0.0  1.95 
C  0.40618  -0.12078  4.45295 
C  -0.88384  0.30325  4.9617 
C  -1.10478  0.34899  6.36889 
C  -0.0918  -0.0058  7.25713 
C  1.13702  -0.42357  6.75278 
C  1.36566  -0.46422  5.3809 
H  -1.72409  0.59204  4.33429 
H  -2.05693  0.66147  6.80716 
H  -0.22437  0.02039  8.33297 
H  1.9516  -0.69357  7.4089 
H  2.3257  -0.77535  5.00557 
N  0.84302  -0.24928  3.07449 
