41

Fe  0.0  0.0  0.0 
C  2.50722  -0.66495  -0.10806 
H  2.76456  -0.59668  -1.18585 
H  3.28126  -1.26297  0.42105 
C  2.43513  0.70761  0.49906 
H  2.35581  0.63577  1.60475 
H  3.3615  1.26136  0.21375 
C  1.3048  2.6927  0.07312 
H  1.87403  3.0648  0.95588 
H  0.27297  3.07585  0.21041 
C  1.84306  3.28702  -1.22457 
H  2.89467  2.97664  -1.38925 
H  1.80191  4.39583  -1.1702 
H  1.2242  2.94997  -2.08378 
O  1.25601  -1.27536  0.0 
O  1.25601  1.27536  0.0 
O  -1.31321  1.27514  0.0 
O  -3.52371  -1.56006  -0.48394 
N  -1.31321  -1.27514  0.0 
C  -2.60427  -0.71969  0.16159 
C  -2.57379  0.72102  -0.31774 
C  -1.47784  -2.71441  -0.04019 
C  -2.80084  0.91223  -1.82748 
C  -3.67515  1.44092  0.47317 
C  -1.02798  -3.34159  1.28769 
C  -3.01726  -2.85348  -0.2326 
C  -0.72368  -3.32322  -1.22996 
H  -2.79044  2.00267  -2.0636 
H  -4.66951  1.00636  0.23058 
H  -3.50188  1.31597  1.56492 
H  -1.99308  0.43071  -2.4158 
H  -3.69183  2.52695  0.24506 
H  -3.51307  -3.23905  0.68816 
H  -3.78454  0.50751  -2.14263 
H  -1.0439  -2.84896  -2.18021 
H  0.37097  -3.1983  -1.12168 
H  -3.26703  -3.53708  -1.06802 
H  -1.22514  -4.43258  1.2914 
H  -1.57939  -2.88335  2.14156 
H  0.05671  -3.17119  1.45414 
H  -0.92714  -4.41262  -1.28373 
