60

Ni  0.0  0.0  0.0 
P  1.3692743497926192  -1.4849874595430097  4.842925674421825e-16 
N  1.3692743497926188  1.4849874595430097  -6.814588749916511e-16 
C  2.5027630766117612  1.439462172736342  0.5851587002131329 
C  1.0661151992463016  2.706236493227173  -0.7085575891665755 
C  0.7225858431666123  2.6066973294112774  -2.052248482332991 
C  0.3900058906538063  3.753829292750705  -2.737104250996449 
C  0.3569770557119909  4.9677555070197155  -2.0971091163486077 
C  0.6905290913705113  5.04965102015585  -0.7670018408116823 
C  1.0625163970034062  3.9097433838173408  -0.07261718871665167 
C  2.175532387198646  -1.353617488203296  -1.6297087616345658 
C  1.3761252210683406  -1.0825169159978651  -2.726802537247855 
C  1.940331483119353  -0.8650179041884356  -3.9621717669619634 
C  3.289697358019708  -0.9409620909728181  -4.108492360687123 
C  4.091813442229106  -1.2377935572369494  -3.035589551441061 
C  3.5326463066857796  -1.4541123839958334  -1.7934813034538026 
C  1.064609645925644  -3.2461006381046738  0.2958507233624469 
C  0.3429113016944474  -3.6192553616944125  1.428870485854107 
C  0.015060032638044785  -4.936261537357243  1.641446704288988 
C  0.40847756053874695  -5.895777350668212  0.7702494116240534 
C  1.1549917870548438  -5.569822618263297  -0.3025754771774421 
C  1.476161643432843  -4.228942220786559  -0.5593907084562123 
C  2.6768816130453166  -1.0297465814765758  1.1919381687093296 
C  3.0667915878720358  0.3074613338085079  1.3346802537072318 
C  4.092288698608236  0.6296404518377162  2.213173100449691 
C  4.692371328106385  -0.3451638912544986  2.9835400912165544 
C  4.322511766146632  -1.647362699448538  2.8439210439308393 
C  3.3257035702945914  -1.9937059137934432  1.947643861046282 
H  3.0285028497577984  2.2056478214354502  0.5316835409343124 
H  0.7165494952002875  1.78109658637383  -2.481127038102848 
H  0.18577360161357293  3.7054156549533017  -3.6438432386817827 
H  0.10981262884480736  5.732981824385185  -2.563437551362724 
H  0.6667546067218166  5.871064727834824  -0.3318461046472896 
H  1.3077583327835873  3.9671565386908765  0.8223494769096606 
H  0.45181881122990486  -1.0467383983689345  -2.627786384990379 
H  1.4016557687892477  -0.668447062378209  -4.694663459024738 
H  3.6723439505479174  -0.7901826459605995  -4.942951032035434 
H  5.013527828646352  -1.2918533437247794  -3.1458184920891603 
H  4.0748829258387635  -1.6676532782048568  -1.0689694158011782 
H  0.08237121109025569  -2.971847604934056  2.0440244077911167 
H  -0.48265092525884734  -5.170817602300167  2.3914948326033407 
H  0.16226048214694888  -6.7807618881163805  0.9132263985340568 
H  1.4593947083197425  -6.236613663289843  -0.8742801157783632 
H  1.9707451546649786  -4.008301307023668  -1.315940962960946 
H  4.3779623522076045  1.5111055790939572  2.283213325109069 
H  5.350539380106075  -0.11243491244793313  3.5992595466104738 
H  4.739470230754648  -2.3053926401866995  3.3506492510437402 
H  3.0893546690380753  -2.8875631861023185  1.8500523469921757 
Br  -1.5839191898578664  1.5839191898578664  0.0 
C  -1.29374738  -1.23987949  -0.45980057 
C  -1.6015622  -1.49386547  -1.79197911 
H  -1.13094174  -1.04282176  -2.48087966 
C  -2.60218399  -2.41188997  -2.12154241 
H  -2.82315865  -2.56261387  -3.0327005 
C  -3.26832081  -3.09759503  -1.14306437 
H  -3.95960209  -3.70719172  -1.36832808 
C  -2.93474499  -2.89608732  0.14198827 
H  -3.36683509  -3.40560694  0.81710224 
C  -1.96755092  -1.95161757  0.51124219 
H  -1.77552984  -1.8022912  1.43013249 
