117

Fe  0.0  0.0  0.0 
O  -1.5978253399718614  -0.9715988178141755  -0.1361495530323207 
O  1.1451326946369997  -1.88653188357163  0.13763789291499542 
O  1.5795900036419401  0.9615118548140424  -0.13923363125163038 
O  -1.1268973583070787  1.8966188465717633  0.1377452913689557 
C  -2.197841429727088  -1.3713654348519757  -1.254313138531777 
C  -3.1782408384222953  -0.5477440447099386  -1.8603174084264587 
C  -3.8576660198472053  -0.9783599735958501  -2.9882214312207083 
C  -3.610120733235242  -2.2517714177760593  -3.5778437890965598 
C  -2.6347620299419443  -3.022538247194684  -2.9580977325718107 
C  -1.940223838360341  -2.6269307295057915  -1.8301038795820923 
C  -0.8599784642725146  -3.5080447082436335  -1.2474466748427868 
C  0.51899791520468  -3.158679557180917  -1.82147595638415 
C  0.8704161913247619  -3.647536828839729  -3.088359085625002 
C  2.0511227765409843  -3.304019611924787  -3.721093225141796 
C  2.873474137537393  -2.4052224300492187  -3.050307033483164 
C  2.6152822755566145  -1.898633510094542  -1.7742388971416703 
C  1.419551162324015  -2.3373498002703434  -1.184947363533806 
C  3.5099965384766447  -0.8681393886943918  -1.1782678546511804 
C  3.293538677049657  0.5232671439294201  -1.755335567487578 
C  4.033840010633664  1.0290115876384454  -2.8192554108739065 
C  3.8324639684439132  2.3030011035899167  -3.3630925214849126 
C  2.8533774651212234  3.089665526062061  -2.8018575747576846 
C  2.0516963155132264  2.641059876793534  -1.72488873314361 
C  2.272908676415163  1.3493818709575829  -1.1925445675666326 
C  0.9374102517229028  3.4850554269898026  -1.1509183773833471 
C  -0.3946691619931167  3.1541990823604453  -1.7823903520366042 
C  -0.6848936410292572  3.6144735657441793  -3.092151754626418 
C  -1.8411144276319384  3.285076463328811  -3.757771113981474 
C  -2.7178520723281796  2.396191707993733  -3.1332382692844294 
C  -2.4888215891637038  1.9025704449080552  -1.8412024739555433 
C  -1.3585935023189302  2.3213579150944437  -1.1973721418632397 
C  -3.4547425579619766  0.8434865724627831  -1.287605623203905 
C  -4.380854396166107  -2.730702438484224  -4.799130589249826 
C  -5.286030566066298  -1.679542161286451  -5.410418723509209 
C  -3.3929411946049264  -3.2323879342328015  -5.876211356665455 
C  -5.2690105859864875  -3.9464622978002595  -4.380647188193588 
C  2.4818155198740315  -3.9301434629268717  -5.049878495246251 
C  3.4226168246965254  -5.096222286959719  -4.75049848424608 
C  3.160363031717855  -2.9033097475173903  -5.937981853571684 
C  1.2778412917077588  -4.504708261372427  -5.800472260407305 
C  4.714672895889188  2.8501903513636604  -4.523128872405291 
C  5.539342717215705  1.7393217348001178  -5.182024245380006 
C  3.875875118430562  3.514513478541782  -5.553333309022969 
C  5.677761931644817  3.8761896431847025  -3.9350112970940176 
C  -2.1722669348110313  3.9016294617010208  -5.123101593091657 
C  -3.1015570149416862  5.098448034726807  -4.8894702162792 
C  -0.9231587962056349  4.3691402447298415  -5.875345912326798 
C  -2.897365105631065  2.872158357787922  -6.0307218048991 
C  1.7004245055999845  -2.706157745822955  1.1737038515326015 
C  -1.7610268020617734  2.716130285461482  1.1429546974591818 
H  -4.510725672207038  -0.5418955895618094  -3.4009803220146395 
H  -2.595226779419645  -3.656755253948111  -3.287902238773381 
H  -1.0485913709882129  -4.432115417974976  -1.4337827551838342 
H  -0.8222435429234827  -3.387985117157863  -0.2844377131507887 
H  0.1995443116298613  -3.9067137287835667  -3.3886807557890646 
H  3.672948609572802  -2.3825695479877256  -3.1986358422089514 
H  4.610698356790903  -0.9425424651880814  -1.2667821437121078 
H  3.5270358430804376  -0.7904265187793409  -0.15980272419840683 
H  4.762989186438572  0.43240941920257736  -3.043377525000655 
H  2.673642491677385  4.106905995144409  -3.19026698167552 
H  1.0167361999487476  4.289817691537395  -1.5439442181346963 
H  0.8993332456616421  3.43302302415897  -0.2382361212475879 
H  -0.0008895371614254244  4.231444615862299  -3.3769641125186074 
H  -3.2630494543282005  2.188522412923308  -3.6530913432825316 
H  -4.296151281298242  1.0897068973520314  -1.6916906784893864 
H  -3.1601284812169617  0.7897727665374839  -0.1792983269919288 
H  -5.841702192953457  -1.987587217022665  -6.536955707681966 
H  -4.448522641441413  -1.0780452829909593  -5.608745377268346 
H  -5.945009322952001  -1.2593497402467453  -4.7055142851105245 
H  -2.711752498939957  -3.8964745372285816  -5.372244339272665 
H  -2.774875117431418  -2.5341934682173903  -6.152955050130731 
H  -3.9281233149925967  -3.26712452755169  -6.754091238598032 
H  -4.480499403815225  -4.728409788219607  -3.682850464342176 
H  -5.520903068599214  -4.190291218690191  -5.036434207385681 
H  -5.953097361786654  -3.7104407197495637  -3.777833777700929 
H  3.008702585397139  -5.857879905443603  -4.207618631322186 
H  4.204394803602263  -4.650266290785238  -4.246298820249674 
H  3.90085994711004  -5.415915518546394  -5.639345205307613 
H  3.5392834477524895  -3.3716284563236827  -6.7286071537576495 
H  3.9617172216113055  -2.637650971280231  -5.731841083833172 
H  2.5800444492852903  -2.2208212229709603  -6.141704721080209 
H  1.0485558061292708  -5.216318638440309  -5.447081290867414 
H  1.7441871043792703  -4.743257217994221  -6.684461959611092 
H  0.6858966913020499  -3.8403132770319197  -5.93876020215821 
H  6.248763170133144  1.331942511057213  -4.83111649533016 
H  6.331755651074296  2.0361691877346173  -5.9266182232900615 
H  4.750819668648971  1.0221354436780938  -5.7652996397741605 
H  3.272493578806245  3.098985100168322  -6.154211411808309 
H  4.282873344835881  3.8253051290284015  -6.3531360057493105 
H  3.2939737140533656  4.1649438808927846  -5.27595647639025 
H  6.014886176126331  3.45801347443523  -3.401175202704756 
H  4.993027776166411  4.773256573952717  -3.6023588988706914 
H  6.325145861476833  4.251090448584838  -4.625629334438529 
H  -3.3327508702853925  5.66154162337747  -5.757252165660395 
H  -2.601023140576679  5.8027616127563695  -4.203444499256617 
H  -4.235726902363852  4.873291511467425  -4.430282992482044 
H  -1.0175302202470127  4.8992510137634655  -6.92875481530749 
H  -0.2087153517285873  3.6408526290369165  -5.930821163313962 
H  -0.44734125843544353  5.1528050896865585  -5.257225785224246 
H  -2.9091548321418452  3.0989054943367798  -7.135748337800321 
H  -3.5484768108471196  2.585935367240552  -5.650608338927741 
H  -2.134953970963999  2.0881954543784214  -6.30371361395831 
H  1.365321565404884  -2.1853162626610487  1.964606613501671 
H  2.640575633158957  -2.8517237639158495  1.0429175688949663 
H  1.3531622786837219  -3.7050728739746455  1.0595552093731293 
H  -1.5184002070257576  2.427009714282016  1.847951088018799 
H  -2.6655558403621553  3.0566072799653536  1.1865388125126795 
H  -1.376058057625228  3.5143259641968125  1.0152247312993425 
C  0.0  0.0  1.91 
H  0.17556394960344146  0.9333826846991531  1.7087340229858963 
H  -0.9339772311577739  -0.1600762492740177  1.7070793601005028 
C  0.1625772728288128  -0.16539532792907458  3.314424866576627 
H  0.09332068254027986  -1.0969081827014524  3.5366345560490258 
H  -0.5222875528867725  0.3251647869174952  3.7752179158072776 
H  1.0248028790720127  0.16383228828789642  3.5785176356155377 
Br  0.0  0.0  -2.3 
