104

Pd  0.0  0.0  0.0 
O  0.26539  -1.86672  0.0 
O  4.27395  -1.2554  1.55238 
H  3.828  -1.91839  2.13294 
O  0.06748  1.88457  0.0 
N  2.06713  -0.01784  0.0 
C  1.57126  -2.33053  0.30104 
H  1.66014  -2.39944  1.40675 
C  2.59665  -1.37026  -0.23453 
H  2.63289  -1.56444  -1.32786 
C  4.04676  -1.64607  0.22354 
H  4.32673  -2.71735  0.08097 
H  4.74749  -1.07703  -0.42629 
C  2.956  0.98464  0.55306 
H  3.8561  0.98694  -0.11023 
C  2.42974  2.37519  0.48678 
C  1.08333  2.74772  0.24951 
C  0.74275  4.10839  0.3251 
H  -0.28727  4.4129  0.19324 
C  1.70724  5.08302  0.59587 
H  1.42518  6.12433  0.66947 
C  3.03674  4.71642  0.77171 
H  3.79335  5.46626  0.9651 
C  3.39269  3.37482  0.72102 
H  4.43478  3.10968  0.87005 
C  1.7366  -3.70214  -0.33709 
C  1.52881  -3.88285  -1.72921 
H  1.24374  -3.04931  -2.36474 
C  1.68752  -5.14199  -2.31928 
H  1.53066  -5.2641  -3.38714 
C  2.05388  -6.23622  -1.54493 
H  2.16691  -7.22115  -2.00254 
C  2.24198  -6.08269  -0.1653 
H  2.51793  -6.94079  0.43675 
C  2.08003  -4.82369  0.42993 
H  2.24651  -4.72221  1.49946 
S  -1.95271  1.09477  -8.60113 
S  -6.14802  -1.16487  -6.48936 
N  0.45918  0.0  -1.86471 
N  -1.81918  0.0  -0.61529 
C  -0.69181  -0.07163  -2.68699 
C  1.71483  0.23574  -2.57547 
H  2.67053  0.43132  -2.11803 
C  1.77989  0.20916  -3.90766 
H  2.73148  0.34901  -4.41347 
C  0.56468  0.03848  -4.69761 
H  0.68563  0.06386  -5.77416 
C  -0.63612  -0.0722  -4.09455 
C  -1.84058  -0.14056  -4.83796 
C  -3.08491  -0.25189  -4.15433 
C  -3.10338  -0.20489  -2.73317 
C  -4.25125  -0.25685  -2.02107 
H  -5.22103  -0.37144  -2.48291 
C  -4.23577  -0.0741  -0.56863 
H  -5.18296  -0.03163  -0.03871 
C  -3.07832  0.10341  0.08264 
H  -3.215  0.34806  1.10584 
C  -1.88646  -0.08845  -2.03061 
C  -1.80655  0.05646  -6.31422 
C  -1.28542  -0.88626  -7.21079 
H  -0.90749  -1.85205  -6.90303 
C  -1.33129  -0.461  -8.53232 
C  -2.20331  1.2468  -6.94882 
C  -0.90842  -1.24475  -9.72278 
H  -0.47101  -2.21699  -9.41549 
H  -0.15943  -0.66734  -10.30246 
H  -1.80044  -1.43068  -10.35664 
C  -2.70558  2.50976  -6.31768 
H  -2.89513  2.38556  -5.23353 
H  -3.64102  2.83074  -6.82002 
H  -1.94333  3.30935  -6.44944 
C  -4.34845  -0.36214  -4.9306 
C  -5.4058  0.5571  -4.82093 
H  -5.38215  1.42543  -4.17564 
C  -6.48693  0.23815  -5.63224 
C  -4.62309  -1.40011  -5.82806 
C  -7.75884  1.00326  -5.72948 
H  -7.90058  1.33776  -6.77648 
H  -7.73248  1.88823  -5.05998 
H  -8.60422  0.34839  -5.43047 
C  -3.77735  -2.59924  -6.11774 
H  -4.37775  -3.51926  -5.95646 
H  -2.89721  -2.64972  -5.44295 
H  -3.44463  -2.57106  -7.17299 
C  -1.09428  -1.02955  2.13496 
H  -1.35493  -1.77607  1.36965 
H  -2.02719  -0.52255  2.29198 
C  -0.96104  -1.72433  3.44875 
H  -1.98316  -1.98385  3.8219 
H  -0.36881  -2.66729  3.36805 
C  -0.24075  -0.67005  4.22637 
H  0.78555  -1.09515  4.33973 
H  -0.65915  -0.53301  5.24326 
N  0.0  0.0  1.91 
H  0.93866  -0.43213  2.02957 
C  -0.16588  0.58646  3.27007 
H  -1.11282  1.17421  3.33225 
C  1.04331  1.43742  3.68837 
H  1.13372  2.28887  2.99636 
H  1.97595  0.82619  3.62728 
C  0.9131  1.94969  5.11931 
H  0.89806  1.1118  5.85031 
H  -0.02077  2.53857  5.22099 
H  1.78787  2.58722  5.35577 
