64

Fe  0.0  0.0  0.0 
N  1.8950484140338275  0.012805720501217754  4.439323850038367e-15 
N  0.30873987402383607  -2.021953595951559  -4.526341105957518e-15 
N  1.6633064933201722  -2.256120154300524  0.033982743254422354 
C  0.19621171194233666  2.009147875450341  8.701725591915044e-17 
C  -0.6913262175647805  3.1072218781559973  -0.07319677771731418 
C  -0.19727675103773135  4.413504115356631  -0.04357615317207973 
H  -0.8203069328323549  5.129534043950203  -0.09094781063982545 
C  1.1561343623046823  4.722654503647824  0.04987969576555094 
C  2.05534157325406  3.6517216417865974  0.0814432374293933 
H  2.9888335913366824  3.820882194045144  0.12551022888124178 
C  1.5913751353260934  2.3305953024202384  0.051382134507525885 
C  2.541117149693197  1.2035190680699173  0.03172385104688987 
C  3.9266208916544416  1.1985568113512592  0.056262942709904805 
H  4.409979403814548  2.0158049452351534  0.0806072723507176 
C  4.601472564136038  -0.018935297551476486  0.045636800024880464 
H  5.551711826428618  -0.024975863002206552  0.03422119812717306 
C  3.915270732771437  -1.2251620659412619  0.0509584399795016 
H  4.369098876472209  -2.0595757955263743  0.06557363292980903 
C  2.537972780034292  -1.147173055996904  0.03397569244063739 
C  1.9082435486048683  -3.5884815204050895  -0.0406482091744328 
H  2.7631711776850585  -4.00140018469464  -0.043465249582354044 
C  0.7035166819908716  -4.228448273515154  -0.1113915606089018 
H  0.5518693504049261  -5.1646764787047985  -0.16243580250004977 
C  -0.26192012757267613  -3.214591706219997  -0.09307878659071483 
H  -1.1990696438344943  -3.3612713487085997  -0.1414990989570795 
C  -2.1783714741867204  2.919002339391618  -0.21986667914740357 
H  -2.581053229928986  3.748157922756325  -0.5542689401556956 
H  -2.566407541578841  2.696155072494969  0.6514984200157152 
H  -2.3541851884296596  2.1919157440960704  -0.8522275498736298 
C  1.6330259683796655  6.153167512772914  0.0386477422800098 
H  2.5373582066936473  6.199813853983255  0.4124448284079125 
H  1.0274601589300272  6.703922093919971  0.5771285792381469 
H  1.643518442163488  6.48696910480345  -0.8832353008180699 
S  -2.047155301877424  1.2212453270876722e-15  0.04715530187742312 
S  0.047155301877424005  0.0  -2.0471553018774244 
O  -2.5996077384416743  -0.031111150091500766  -2.4464512131273484 
C  -1.5782642501852495  -0.010895661266951736  -1.6049741350035216 
C  -2.4214468449473703  0.038958774586042355  -3.906283902747992 
H  -1.4406443638232975  0.04639732372150801  -4.103016642798156 
C  -3.0261486561410673  -1.2256934183494104  -4.52540502211205 
C  -2.3184255183639855  -2.44061656024088  -3.97906731560483 
H  -1.3591323770069024  -2.3718564967857905  -4.167690173760785 
H  -2.6781631770613434  -3.2467858688557167  -4.404190242253591 
H  -2.4579416878375735  -2.4917114901816704  -3.0104566886809936 
C  -4.5385662630617105  -1.2574236698849854  -4.27275733576983 
H  -4.949081949745947  -1.9431886695230318  -4.840117403326247 
H  -4.923326609469555  -0.3821031507361665  -4.48862617231001 
H  -4.707948662347144  -1.4664762713571358  -3.3315452913132786 
C  -2.7862581231004486  -1.145184931400624  -6.05539837036123 
H  -1.8349149944998744  -0.9888358864631606  -6.229315528260082 
H  -3.3122248767364  -0.4074466677141371  -6.430055504768819 
H  -3.061332215115053  -1.9873266192280932  -6.474018343039829 
C  -3.0095201021617823  1.3707014218796862  -4.350475736901399 
H  -2.957243142894667  1.4319363222640191  -5.337262480075782 
H  -3.965428711961344  1.4009376148642132  -4.095705345480155 
C  -2.3013236539862594  2.559654153751921  -3.74599639716745 
H  -2.4401831641047638  2.5639373363066578  -2.7758130481056096 
H  -2.662327644305937  3.38520759912364  -4.131223327441239 
H  -1.3422001923068927  2.5014802543199783  -3.93843766789983 
P  4.9761016208185456e-17  7.36737755654415e-18  2.2700000000000005 
H  1.0970588945716624  -0.7677683192478685  2.745973118779313 
H  0.11568764857364983  1.3347425878691195  2.743038330472219 
H  -1.212746543145312  -0.566974268621251  2.7435443071249965 
