94

Fe  0.0  0.0  0.0 
S  0.48718  -2.29548  -0.57747 
S  -1.73142  0.00096  -0.34776 
S  2.87575  0.01575  -0.34671 
S  0.67818  2.31065  -0.57755 
N  0.56606  -0.01613  1.50278 
C  -1.2636  -2.74749  -0.35899 
C  -1.69549  -4.1088  -0.29802 
C  -3.07773  -4.33647  -0.12683 
H  -3.46332  -5.33382  -0.06866 
C  -4.02375  -3.31778  0.00898 
C  -3.57206  -1.98111  -0.05885 
H  -4.23951  -1.15197  0.02989 
C  -2.23501  -1.71045  -0.22732 
C  -1.89491  0.46865  1.42801 
H  -1.91687  1.58148  1.4614 
H  -2.84584  0.09994  1.86134 
C  2.41293  2.7729  -0.37794 
C  2.8586  4.1302  -0.38191 
C  4.24976  4.34918  -0.22671 
H  4.64863  5.34244  -0.22174 
C  5.1847  3.30872  -0.09727 
C  4.70786  1.99523  -0.11018 
H  5.37304  1.14776  -0.03067 
C  3.353  1.73088  -0.2415 
C  3.06439  -0.48753  1.38581 
H  3.30136  -1.57399  1.42136 
H  3.92554  0.0422  1.83919 
C  -0.68515  -0.04891  2.22689 
C  -0.59973  0.10124  3.70848 
H  -1.49787  0.29757  4.28829 
C  0.58511  -0.0809  4.30645 
H  0.63537  -0.03455  5.39151 
C  1.81758  -0.33054  3.50984 
H  2.74016  -0.52719  4.04635 
C  1.80541  -0.26451  2.15292 
C  -0.71993  -5.32662  -0.41356 
C  0.29948  -5.30498  0.75055 
H  0.97256  -6.18727  0.69404 
H  -0.23315  -5.33499  1.72654 
H  0.9596  -4.42363  0.76722 
C  -0.00181  -5.32637  -1.78464 
H  0.66314  -6.21221  -1.86633 
H  0.63909  -4.44903  -1.96966 
H  -0.74684  -5.37249  -2.6067 
C  -1.4486  -6.69168  -0.31254 
H  -0.72662  -7.53218  -0.37973 
H  -2.17881  -6.81606  -1.14076 
H  -1.97044  -6.79029  0.6642 
C  -5.50093  -3.66521  0.2286 
C  -5.62699  -4.48249  1.5398 
H  -6.68383  -4.76186  1.73177 
H  -5.25489  -3.88381  2.4009 
H  -5.03878  -5.42246  1.50039 
C  -6.40862  -2.42272  0.36012 
H  -6.36326  -1.81024  -0.56656 
H  -6.09487  -1.79576  1.22423 
H  -7.46259  -2.71509  0.52035 
C  -6.01456  -4.50683  -0.95941 
H  -5.9176  -3.93032  -1.90538 
H  -7.08073  -4.77844  -0.81823 
H  -5.4455  -5.45323  -1.07663 
C  1.90087  5.34708  -0.57282 
C  0.87839  5.41554  0.58303 
H  0.19737  6.28151  0.44667 
H  1.41019  5.53125  1.55191 
H  0.23736  4.52427  0.66332 
C  2.64759  6.70849  -0.56979 
H  3.38514  6.7589  -1.40211 
H  3.16932  6.87285  0.39838 
H  1.94059  7.55317  -0.70744 
C  1.1845  5.26528  -1.94441 
H  1.93289  5.22261  -2.76614 
H  0.54321  6.15763  -2.10357 
H  0.52041  4.39488  -2.05629 
C  6.68062  3.64954  0.02904 
C  6.90322  4.4579  1.32347 
H  7.971  4.74171  1.42986 
H  6.60673  3.85208  2.20756 
H  6.30367  5.39182  1.33267 
C  7.12587  4.48467  -1.19426 
H  6.95584  3.91749  -2.13526 
H  8.20487  4.73645  -1.12272 
H  6.57716  5.44565  -1.26878 
C  7.57958  2.39235  0.08607 
H  7.45014  1.77738  -0.83211 
H  7.33897  1.77242  0.97664 
H  8.65097  2.67738  0.15141 
N  0.0  0.0  -1.87 
N  -0.89396  0.55379  -2.82921 
H  0.91041  0.46052  -2.07492 
H  0.37362  -0.83394  -2.37143 
H  -0.32566  0.78931  -3.68969 
H  -1.46552  -0.24665  -3.20636 
70

Fe  0.0  0.0  0.0 
O  -2.08837  1.70765  4.0347 
H  -2.07876  0.88555  4.59242 
O  -0.01093  -1.17238  0.93241 
O  -2.22921  -5.2616  -1.80874 
H  -3.15558  -5.15719  -1.47475 
N  -1.72417  -3.89031  2.57621 
O  -1.92105  -0.33803  -0.82234 
N  2.25146  -0.03395  -0.62418 
C  -1.63175  1.93316  0.99185 
H  -1.54763  2.61475  1.86111 
C  -2.64491  0.81861  1.16783 
C  -1.36695  -4.5475  0.31611 
C  -1.12916  -2.69302  2.34829 
N  -4.74594  -0.98647  1.35075 
N  -0.31948  1.54436  0.51411 
C  -0.78476  -3.27113  0.04155 
C  2.83169  -0.97888  0.36384 
H  2.44074  -2.00333  0.20638 
H  2.51981  -0.72501  1.39559 
H  3.94379  -1.00102  0.32822 
C  -1.46261  -5.67093  -0.70083 
H  -0.44787  -5.94625  -1.04953 
H  -1.90032  -6.59729  -0.28383 
C  2.63957  -1.78539  -2.49968 
H  3.23251  -1.88042  -3.43358 
H  3.05371  -2.53505  -1.79495 
N  0.31263  -1.91544  -1.69754 
C  -3.50728  0.83275  2.29913 
C  0.7168  2.57146  0.60535 
H  0.48359  3.27077  1.4387 
H  0.74062  3.1749  -0.32722 
C  2.81214  -0.34906  -1.98264 
H  3.91847  -0.20505  -1.94838 
H  2.43372  0.36243  -2.74443 
C  -0.99941  -1.73099  3.48464 
H  -1.44654  -2.14003  4.41401 
H  -1.53854  -0.81122  3.22348 
H  0.06953  -1.47858  3.67324 
C  -4.54941  -0.1008  2.36038 
H  -5.23162  -0.10259  3.20097 
C  -3.35438  1.8266  3.44166 
H  -3.46397  2.85721  3.05984 
H  -4.12593  1.70003  4.22736 
C  -0.65444  -2.35169  1.0587 
C  -0.22435  -3.039  -1.28589 
H  -0.09156  -3.9241  -1.88927 
C  1.20618  -2.11613  -2.84972 
H  0.88873  -1.53022  -3.65199 
H  1.2015  -3.14109  -3.28682 
C  -1.8446  -4.81365  1.60565 
H  -2.30081  -5.76555  1.84044 
C  -3.92109  -1.04739  0.27119 
C  2.76311  1.32391  -0.29334 
H  2.63765  2.02437  -1.1507 
H  3.86013  1.27695  -0.09452 
C  -2.82821  -0.17189  0.17079 
C  -4.1779  -2.0638  -0.79053 
H  -5.08806  -2.6518  -0.55555 
H  -3.31338  -2.74741  -0.8694 
H  -4.32339  -1.54956  -1.7651 
C  2.09395  1.99335  0.9172 
H  2.73062  2.87158  1.16055 
H  2.06884  1.36121  1.82891 
N  0.0  0.0  -1.87 
C  -0.29888  1.04326  -2.88263 
C  -0.27839  0.5519  -4.40404 
H  -0.02832  1.42136  -5.03095 
H  -1.23272  0.09509  -4.76456 
H  0.52262  -0.07957  -4.83568 
