55

Pd  0.0  0.0  0.0 
S  -0.08698  -2.1728  0.0 
O  0.48144  2.20371  0.0 
N  2.00554  -0.03091  0.0 
N  2.47991  -1.37542  0.09581 
N  2.17494  -3.59507  -0.80908 
H  3.20409  -3.70127  -0.96442 
C  1.59292  2.90816  0.36929 
C  2.84931  2.29405  0.4513 
C  3.99099  2.98736  0.87167 
H  4.95551  2.48986  0.94 
C  3.90779  4.32993  1.18433 
H  4.80758  4.84693  1.49899 
C  2.68436  4.98397  1.06444 
H  2.6403  6.03968  1.28429 
C  1.52625  4.28153  0.66469 
H  0.59071  4.81153  0.57771 
C  3.09794  0.92138  0.05006 
H  4.12201  0.50493  0.18223 
C  1.59701  -2.24602  -0.67897 
C  1.36975  -4.79211  -0.57623 
H  2.03294  -5.68354  -0.58954 
H  0.89058  -4.7417  0.42138 
H  0.60624  -4.91492  -1.37379 
H  3.40734  -1.45334  -0.38536 
O  -3.055  0.0669  -2.49729 
O  -2.87955  -0.17033  0.20965 
H  -3.57206  0.48046  -0.08206 
N  0.46593  0.0  -1.86841 
N  -1.82593  0.0  -0.61159 
C  1.77588  0.03406  -2.5783 
H  2.7765  -0.087  -2.14527 
C  1.78088  0.33294  -4.04348 
H  2.7328  0.43503  -4.54976 
C  0.64015  0.47162  -4.70664 
H  0.66713  0.69794  -5.76944 
C  -0.64847  0.34046  -4.01311 
H  -1.55736  0.45769  -4.59042 
C  -0.70522  0.12539  -2.67862 
C  -1.95942  0.06217  -1.95038 
N  0.0  0.0  1.91 
N  -0.44736  0.46866  4.13698 
C  -0.97563  1.03411  2.08777 
C  -1.2538  1.30952  3.38425 
C  -0.40371  0.41469  5.56078 
C  0.57989  -0.59731  6.06142 
C  1.30774  -1.3537  5.20286 
C  1.18577  -1.22838  3.72344 
C  0.31635  -0.32562  3.25376 
H  2.00941  -2.07058  5.60651 
H  1.76854  -1.83899  3.04129 
H  -1.95677  2.04544  3.74228 
H  -1.03947  1.11345  6.14516 
H  -1.45371  1.56057  1.28748 
H  0.68887  -0.70066  7.13326 
