30

Ru  0.0  0.0  0.0 
C  1.45184  1.34646  0.0 
C  1.46227  2.7588  0.04588 
C  2.69701  3.44114  -0.05059 
C  3.89578  2.74394  -0.22273 
C  3.89946  1.355  -0.25562 
C  2.6932  0.65528  -0.11895 
C  2.69514  -0.6908  -0.11994 
H  3.61386  -1.25492  -0.22084 
C  1.2573  -2.78883  0.11139 
H  0.62487  -3.11664  -0.73628 
H  0.70537  -3.00649  1.0527 
C  2.54202  -3.59216  0.14146 
C  2.91171  -4.34142  -0.97999 
H  2.29119  -4.32807  -1.86874 
C  4.08534  -5.09334  -0.97775 
H  4.35916  -5.66188  -1.85496 
C  4.90175  -5.11815  0.15563 
C  4.54664  -4.37422  1.2885 
H  5.17522  -4.39874  2.17121 
C  3.37411  -3.61163  1.28805 
H  3.10954  -3.04351  2.17072 
N  1.45184  -1.34646  0.0 
Br  6.49599  -6.17074  0.15389 
F  0.33742  3.49295  0.19497 
F  2.72727  4.79461  0.01013 
F  5.06943  3.41341  -0.34886 
F  5.07296  0.69263  -0.43345 
Cl  -1.58392  1.58392  0.0 
Cl  -1.58392  -1.58392  0.0 
