61

Pd  0.0  0.0  0.0 
S  -0.26681  2.10091  0.0 
N  2.11505  0.01599  0.0 
N  0.55176  -2.1169  0.0 
O  4.14825  1.07566  -0.08745 
C  1.85102  -2.36874  0.26392 
C  2.3011  -3.69352  0.37666 
H  3.34237  -3.91054  0.57509 
C  1.38884  -4.73673  0.19704 
H  1.72182  -5.76603  0.26182 
C  0.0502  -4.45071  -0.0724 
H  -0.66521  -5.24949  -0.21206 
C  -0.35542  -3.1169  -0.16363 
H  -1.38981  -2.87682  -0.37121 
C  2.77774  -1.2219  0.39636 
H  3.62812  -1.41381  -0.29214 
H  3.16308  -1.14992  1.43684 
C  2.94149  1.13585  -0.28697 
C  2.37911  2.37871  -0.88876 
H  3.21655  3.09834  -1.0197 
H  1.97316  2.1603  -1.89656 
C  1.32212  3.01518  0.01208 
H  1.12827  4.05368  -0.32049 
H  1.70686  3.08824  1.05245 
C  -0.81854  2.804  -1.6137 
H  -0.87461  3.90515  -1.60761 
H  -1.84416  2.44761  -1.82755 
H  -0.17667  2.45373  -2.4501 
O  -2.78221  0.09238  0.89827 
N  -3.9636  0.04132  -3.1008 
C  -2.21501  0.03085  -6.35057 
H  -2.68425  0.13392  -7.34849 
H  -1.69846  -0.95057  -6.28681 
H  -1.47242  0.84609  -6.21047 
C  -1.30175  -0.08602  -2.30438 
H  0.68643  0.04995  -2.59424 
H  -4.93302  0.10664  -3.43782 
O  -4.64474  0.0034  -0.9695 
O  -3.18575  0.09587  -5.37789 
N  -1.91389  0.0  -0.08611 
N  -0.08611  0.0  -1.91389 
N  -1.64839  -0.03647  -3.67455 
C  -3.71585  -0.01605  -1.76351 
C  -2.89439  0.02807  -4.05206 
C  -2.31429  -0.07191  -1.30146 
N  0.0  0.0  1.91 
H  0.9363  -0.44238  1.96721 
H  0.15761  0.96317  2.27549 
C  0.05916  0.70002  4.89702 
H  -0.90928  1.23495  4.79355 
H  0.84416  1.26008  4.34503 
C  -0.06493  -0.7217  4.32543 
H  -0.70626  -1.32991  4.99903 
H  0.94138  -1.19818  4.28874 
C  -0.74141  -0.74262  2.93632 
H  -0.83707  -1.80212  2.61009 
H  -1.76023  -0.32386  3.04678 
C  0.42168  0.68076  6.37631 
H  -0.39942  0.20575  6.95573 
H  0.54635  1.72424  6.73566 
H  1.36506  0.1218  6.54581 
