59

Ni  0.0  0.0  0.0 
P  1.3946113643234093  -1.4612183760478792  -2.8983236139851316e-16 
N  1.3946113643234095  1.4612183760478792  3.761638716043454e-16 
N  2.4244171689969365  -1.0428353711383045  -1.300186265834092 
C  1.231929070937265  2.496243078577658  0.8495268133330381 
H  0.37900422525352573  2.6188892880270016  1.249287160194876 
C  2.2378119285341374  3.388743553781966  1.1735123509004652 
H  2.073407953608396  4.106221093200515  1.773712861945342 
C  3.4872694428903355  3.216384384797804  0.6054936481397437 
H  4.202396124577358  3.8050070431894323  0.8161887244165343 
C  3.6692211223288442  2.168283556677764  -0.27710151411961165 
H  4.517885786624348  2.031947733596469  -0.68185739229926 
C  2.6187556987437253  1.3139450536427488  -0.5715772450110559 
C  2.8457512443684  0.14722731456598595  -1.4990135552718669 
C  3.6784155669043357  0.38177276007766403  -2.719932250339446 
C  3.737894257433267  1.6311400619984417  -3.3419392923125852 
H  3.2881339084071035  2.3752301260316733  -2.959110107099537 
C  4.458456048120981  1.7854383713379445  -4.526201344198009 
H  4.485342507828136  2.6316847779458796  -4.957640444868736 
C  5.1297018387359845  0.7089195697782942  -5.073276758076411 
H  5.630219330084804  0.8199111762749564  -5.873461414353476 
C  5.076916992246579  -0.5342551088164119  -4.456590793843366 
H  5.542580066305762  -1.2707892659564777  -4.834913138972113 
C  4.3520982721103145  -0.7026615489718955  -3.2959558280361865 
H  4.309483150263942  -1.5580665524188584  -2.883763007298217 
C  1.2610656235601798  -3.25714994795826  -0.2523158222139726 
C  1.7441674526807187  -3.897805937743956  -1.3911533327711796 
H  2.174795135617156  -3.392542352846493  -2.070451506230644 
C  1.5965586401237202  -5.278345895403167  -1.5389456321707546 
H  1.9184016741819048  -5.70878963694792  -2.3226362833802705 
C  0.9793627184328477  -6.020568151691343  -0.5403126182368663 
H  0.8897045529519448  -6.961354623127669  -0.633747453951333 
C  0.49458050826069044  -5.386416323197203  0.5905253794967478 
H  0.07568353789409632  -5.896534976383082  1.2739670652970296 
C  0.6158935018984986  -4.011692207399346  0.7328591176561693 
H  0.2602771599361233  -3.5823217277473423  1.5021354779667688 
C  2.480091908727528  -1.3675189145270676  1.46669214855433 
C  3.780402082558054  -1.8506005685569031  1.4369783912580079 
H  4.1324397832022415  -2.2140204643812913  0.6328824413588958 
C  4.56891648336264  -1.8051791681092093  2.5753286168499177 
H  5.462094486119975  -2.12955740463398  2.5496781770978094 
C  4.05441350009472  -1.2860116826497037  3.7517267561930825 
H  4.590150018672922  -1.269429195461487  4.535112378846704 
C  2.7709439152600863  -0.7943999346898201  3.7863233466645854 
H  2.4251059114955504  -0.4276896579895747  4.591376977247407 
C  1.9755727770368037  -0.8311033089965784  2.644855241636713 
H  1.0896483551079825  -0.48976300136301354  2.6705665818335866 
Br  -1.5839191898578664  1.5839191898578664  0.0 
C  -1.308147545195113  -1.308147545195113  0.0 
C  -2.5481111008682706  -1.081588847540519  0.5874691967409313 
H  -2.7399447190521347  -0.23895174706744582  0.9782000501948406 
C  -3.514692573752534  -2.090568128666735  0.6049610958635798 
H  -4.3504064840370384  -1.9365173000894942  1.0287619599160838 
C  -3.2692344052199704  -3.300825455744854  0.016423527177974795 
H  -3.920165040096455  -3.990528127682657  0.045080339651694334 
C  -2.0939695739763726  -3.5035118821402764  -0.6007549227026172 
H  -1.9425337635726068  -4.327915038834382  -1.0474288760065322 
C  -1.0854604411866036  -2.53050399443706  -0.5998012209931928 
H  -0.24896772463074335  -2.712575304189299  -1.0129111498427692 
