35

Fe  0.0  0.0  0.0 
O  1.3002821463051797  -1.2883191918154444  -4.3832165876089556e-15 
N  1.300282146305178  1.2883191918154449  6.427100747134236e-17 
C  1.2345366351430664  2.610556755939248  -0.0368146951907081 
H  0.3964830177779529  3.0280739468785685  -0.1939357303559356 
C  2.36529500806635  3.4077869039685367  0.15085742084447792 
H  2.284502711639802  4.353962686914278  0.143018249641921 
C  3.5838490398378435  2.8312417009483806  0.3455798656933009 
H  4.361587427589655  3.3688736049053176  0.435349214943819 
C  3.678391719788263  1.4287507488002122  0.41228781732068115 
C  4.872178989668708  0.696562758438326  0.6452410122789256 
H  5.693973990809842  1.154140751334087  0.7788495693287784 
C  4.836127400613979  -0.6738874383890802  0.6762357044431306 
H  5.638472056889913  -1.15434769539088  0.8468893126300147 
C  3.6505855729085672  -1.384249843772778  0.46477223767297 
H  3.6526171070845947  -2.3341920846202755  0.4771694923096642 
C  2.489243992169275  -0.7014804683042108  0.23753286439389873 
C  2.4975626584687785  0.6911811029883047  0.21202996973347543 
O  -1.3002821463051775  1.2883191918154449  1.9828502194830842e-16 
N  -1.3002821463051775  -1.2883191918154449  -2.220446049250313e-16 
C  -1.2287199903543538  -2.610556755939248  -0.023593470614177908 
H  -0.3760836714897088  -3.0280739468785685  -0.017919581022687144 
C  -2.374512675047763  -3.407786903968537  -0.055128289090005854 
H  -2.2937089762805556  -4.353962686914278  -0.04740753572281825 
C  -3.6078332312132804  -2.8312417009483806  -0.09649451461336621 
H  -4.38841117358732  -3.368873604905318  -0.1567739615813515 
C  -3.713367373082249  -1.4287507488002122  -0.04905176972536635 
C  -4.92967097355041  -0.6965627584383256  -0.04816393074256681 
H  -5.761861000436355  -1.154140751334087  -0.07381601777441973 
C  -4.900195819801657  0.6738874383890809  -0.010859730882331324 
H  -5.720361388431634  1.1543476953908804  0.00356391205759074 
C  -3.6960866029585455  1.3842498437727784  0.007774026951339753 
H  -3.70044631983249  2.334192084620276  0.01955587410763955 
C  -2.5127228215114004  0.7014804683042113  0.006304101300868278 
C  -2.5160224687716743  -0.6911811029883044  -0.020317509713883998 
