68

Pd  0.0  0.0  0.0 
P  1.5512668540583214  1.4441852884931348  1.4796058790704228e-15 
N  1.5512668540583212  -1.4441852884931348  -1.6653345369377348e-16 
C  2.524712973136555  -1.0016428529121355  0.7049031819772105 
H  3.1537330332906928  -1.5445323881033317  0.9266226815788114 
C  2.5709308008195135  0.4156750849652866  1.209120699894985 
C  4.001851001884448  0.9140504913170457  1.4244569776748635 
H  4.471338236619219  0.9457281093931407  0.5652408436700744 
H  4.472040510283011  0.3026232582357964  2.0299334964917146 
H  3.9806774883568723  1.8106081528003517  1.8192243166993796 
C  1.8376689107144881  0.38177031845773635  2.5709960236040876 
H  1.9324155003659382  1.250806691421705  3.0138400550813715 
H  2.227656570057063  -0.31729952254127025  3.1346865796418273 
H  0.8860213975023513  0.19135415289290725  2.4255502794628936 
C  1.5092731680411844  -2.8451751241610377  -0.3367299670209371 
C  1.8120961749134836  -3.2253958197844805  -1.6501667790254124 
C  1.7222639966201176  -4.577306153282715  -1.9637906619230023 
H  1.936163891084561  -4.8595284022195315  -2.845307580282035 
C  1.330024076281013  -5.526347021459731  -1.034116172963453 
C  1.0204791119891488  -5.100884246775802  0.25371322662325446 
H  0.746940301840282  -5.744514705696945  0.8978781214221767 
C  1.0981460778546608  -3.7594335614406913  0.6298634509050058 
C  2.248965674677773  -2.224646188476439  -2.678052135284848 
H  1.710147431488447  -1.411102376362204  -2.59261176674037 
H  2.130473948121253  -2.6036963833244817  -3.5749003668844503 
H  3.1939476765879404  -2.005983498504369  -2.5410298594313843 
C  1.2423390317536342  -6.979780307842345  -1.4084374186886528 
H  0.7476906445673333  -7.071702151983628  -2.2485531473973257 
H  0.7759113762367454  -7.472670978223512  -0.6998278229165993 
H  2.1460523849722684  -7.343056377180657  -1.5192466360871009 
C  0.7177581526421529  -3.3112784423179167  2.0219900814802036 
H  1.5260779851616761  -3.075597305893145  2.5220059715168754 
H  0.2498919844757148  -4.038345996160398  2.483971499758888 
H  0.12964457647609273  -2.528871258140751  1.9654577042337344 
C  1.1253435731841623  2.899423568335226  0.9788604587435579 
C  -0.11109264225223714  2.9021273280474404  1.6167130865823052 
H  -0.7481318637697754  2.225816737722074  1.4217255339998116 
C  -0.4137719868419736  3.9004311790057264  2.545147362942576 
H  -1.2487719483185773  3.891789403535888  2.9978897997107934 
C  0.5057641229284695  4.9062220747955525  2.807225722931671 
H  0.29362687716534985  5.591063859212262  3.4318512581741527 
C  1.72929872316615  4.91517846363503  2.1648921062492943 
H  2.3521635914501777  5.6086147788913046  2.3450973296512374 
C  2.0483568964341825  3.917315622570054  1.2579506073130986 
H  2.893741160714599  3.921392142423089  0.8248320003554024 
C  2.695229996745484  1.9778552380078325  -1.3013045966100227 
C  3.5896150775094204  1.0430344703702894  -1.8500431133012416 
H  3.628211323147024  0.16300095934755165  -1.4933529546205278 
C  4.412538885220671  1.3878187677643874  -2.9012977232661474 
H  5.007843161576499  0.7438672246972584  -3.266350484841704 
C  4.3730374211440015  2.667896206393404  -3.4273879013238586 
H  4.946007627012362  2.904475170825656  -4.148200953907746 
C  3.499766457011618  3.6014179024956356  -2.9040463626421635 
H  3.470583010156214  4.479497149046573  -3.26714745491011 
C  2.6629756752298914  3.2593346366319635  -1.8468933241745809 
H  2.0629702207811573  3.9061922507091205  -1.4928452741274225 
Br  -1.654629867976521  1.654629867976521  0.0 
C  -1.352040782177733  -1.3199206589279684  -0.4819701001757076 
C  -1.6380700204479186  -1.599217458033982  -1.8139382277462257 
H  -1.1579680913617836  -1.159339363685303  -2.503515938957912 
C  -2.63068216563725  -2.52632649780156  -2.142289956238523 
H  -2.8368222554424674  -2.694399528648736  -3.0538898079700485 
C  -3.3101544432602585  -3.1961573187854975  -1.1619874135498987 
H  -3.9960123560788676  -3.811990145619169  -1.3868663427944008 
C  -2.9974710358883443  -2.9701089012107795  0.12423560353005347 
H  -3.438659168087169  -3.468581175155742  0.8017084178296768 
C  -2.0389854250767776  -2.015940632791841  0.4912562833419403 
H  -1.8619130127668426  -1.8492165108145995  1.4101568590026907 
