20

Fe  0.0  0.0  0.0 
C  3.59002  1.38238  -0.54478 
C  4.6231  0.91597  -1.36611 
H  4.53814  -0.04111  -1.86154 
C  5.75407  1.70558  -1.58732 
H  6.53773  1.34692  -2.24685 
C  5.87986  2.95168  -0.96884 
H  6.75815  3.55826  -1.14012 
C  4.86738  3.41878  -0.12793 
H  4.96563  4.38219  0.36061 
C  3.71942  2.64414  0.07971 
H  2.9481  3.02429  0.73279 
N  2.40267  0.61343  -0.34858 
N  2.31536  -0.71757  -0.72327 
O  1.2892  1.2418  0.0 
O  1.2892  -1.2418  0.0 
O  -1.42957  1.07723  0.0 
O  -1.42957  -1.07723  0.0 
O  -3.25666  0.00045  -0.62148 
N  -2.24277  -0.00036  0.2768 
