24

Co  0.0  0.0  0.0 
C  2.4765868620633587  0.7369505904167997  -0.10238916810979612 
C  3.6318444134172183  1.4675993566517582  -0.06079228794749485 
C  3.5491761579187204  2.837704292055388  0.096323960465753 
C  2.3061710719352995  3.4404271081996316  0.1646454294086489 
C  1.1793177396248622  2.6344372193103682  0.11752264862093204 
C  2.478634932552732  -0.7585558778099641  -0.22303554766251574 
C  1.1912716809843058  -2.629482904698958  -0.0962517215350916 
H  4.503024307309668  1.0267692078299313  -0.14362894871611004 
H  4.363963684542258  3.3784781810311997  0.15775674862232072 
H  2.2246160010414306  4.413590900692306  0.2471205371246818 
H  0.29354201656002166  3.0517586683469076  0.17142623480050456 
N  1.2645009954523565  1.308983281978803  8.581588741645156e-16 
N  1.2645009954523565  -1.308983281978803  3.3306690738754696e-16 
N  1.108739731348496  -3.7747887276531404  -0.1289937311947859 
O  3.5169757099438077  -1.3707267366987308  -0.4857115258834647 
O  -2.95016838623411  2.949501489761185  -0.0005759221121666158 
N  -1.2869343417595165  1.2869343417595167  -4.0539656146541486e-17 
C  -2.1067964512829906  2.1074633477559153  0.0005759221121666158 
F  -1.2374368670764582  -1.237436867076458  3.1048506871547037e-17 
F  -3.453938885585009  -1.6907068498429942  -0.33665794906751706 
F  -2.2887128934115704  -2.7694925350101043  1.264746285547203 
F  -1.8988888347111825  -3.1654718808636426  -0.9717619976737122 
B  -2.243148026993139  -2.259017374984158  0.04367366119402574 
