20

Ru  0.0  0.0  0.0 
C  1.3402  2.90317  0.01786 
H  0.35246  3.34189  0.02024 
C  2.4137  3.72774  0.03804 
H  2.26276  4.80205  0.05395 
C  3.80678  3.1922  0.04388 
H  4.64653  3.87915  0.06242 
C  4.01468  1.8674  0.02937 
C  2.84251  0.96389  0.00372 
C  2.99406  -0.48387  0.01166 
C  4.22935  -1.01267  0.02867 
H  4.3536  -2.09192  0.03423 
C  5.44038  -0.13414  0.03894 
H  6.4191  -0.60293  0.0485 
C  5.34688  1.21615  0.04016 
H  6.25063  1.81828  0.05048 
N  1.52143  1.48501  0.0 
S  1.52143  -1.48501  0.0 
Cl  -1.58392  1.58392  0.0 
Cl  -1.58392  -1.58392  0.0 
