32

Co  0.0  0.0  0.0 
O  0.9620122634353477  1.4498732375625116  -2.0098161062557148e-16 
O  0.9620122634353478  -1.4498732375625116  0.0 
C  2.165210544393495  1.2433102758904306  -0.3349879842093737 
C  2.9350574087728702  2.5180784915637076  -0.6066554127215569 
H  3.329177296926143  2.4729948330020175  -1.4806906851750052 
H  3.6279670173565703  2.6184368858221068  0.05033001103933843 
H  2.340135283914921  3.267781563418039  -0.5606611804017199 
C  2.8189366126320183  -0.0008187095045615322  -0.4741549178015111 
C  4.308764924085695  0.02154150389899323  -0.8194552989881768 
H  4.700651013347771  -0.8256633504129953  -0.5988337953375112 
H  4.743101174566051  0.71577370911728  -0.31771808016100656 
H  4.416897660479146  0.19044778387951555  -1.7587702407958976 
C  2.16906570965918  -1.2268875919046027  -0.34276433564438036 
C  2.9202420119201284  -2.526351394110807  -0.6671809654237054 
H  3.3454362983880666  -2.857563139081922  0.12781917215378336 
H  3.5881687481669924  -2.352065526592609  -1.3362441398624614 
H  2.301062074187538  -3.180715296706184  -0.9963204156414172 
C  -1.3152186130069785  1.3152186130069783  -6.021038136088187e-17 
H  -1.1700686727877512  1.9246584368577735  0.7543648294817743 
H  -2.196336785392035  0.8944573740166148  0.08430045110266038 
H  -1.271572896002977  1.8188625433083745  -0.8386652805844347 
C  -1.3152186130069785  -1.3152186130069785  0.0 
N  -1.7663523420726233  -1.6939824185252323  1.270434397412418 
C  -2.629522969324304  -2.6497528732799887  1.4124204392187436 
F  -3.0231495590826833  -3.008328950955002  2.623551594112545 
C  -3.2741203057101966  -3.2719134024889454  0.3543714423293562 
F  -4.20781975373131  -4.188418034619545  0.5573223971145529 
C  -2.916789612119673  -2.9119368746016727  -0.8939062690747775 
F  -3.4677614831242067  -3.483542096476337  -1.976804675060944 
C  -1.8958444309651146  -1.9767349727741612  -1.0465240920689889 
F  -1.5613699095596614  -1.5581207419688907  -2.3008652339829054 
