64

Pd  0.0  0.0  0.0 
N  1.96357  0.02141  0.0 
N  0.27452  -2.02834  0.0 
C  0.16191  2.00693  0.0 
H  0.35313  2.28773  -1.05795 
H  -0.84554  2.41298  0.24027 
C  1.19016  2.7314  0.85696 
H  1.09186  3.83318  0.75852 
H  1.0362  2.49537  1.92018 
C  2.57708  2.32643  0.48639 
H  3.35364  3.08551  0.51223 
C  2.91186  1.0853  0.121 
H  3.95633  0.90313  -0.12155 
C  2.51091  -1.26207  -0.36124 
H  3.57165  -1.3749  -0.04423 
H  2.49906  -1.36657  -1.4638 
C  1.68319  -2.30144  0.32117 
H  2.01424  -3.32299  0.01524 
H  1.85943  -2.19909  1.41477 
C  -0.56857  -2.85414  0.89019 
H  -0.33494  -2.67568  1.93392 
H  -0.4076  -3.94852  0.7323 
H  -1.64341  -2.62461  0.73116 
C  0.00225  -2.62408  -1.34879 
H  -1.06519  -2.48273  -1.6301 
H  0.23242  -3.71019  -1.40203 
H  0.63364  -2.21209  -2.15489 
N  -1.97948  0.0  -0.02051 
H  -2.36441  0.03036  0.93507 
N  -0.02051  0.0  -1.97948 
H  0.94109  0.05613  -2.34523 
N  -2.36869  -0.05232  -2.35941 
H  -3.09401  -0.07708  -3.08378 
C  -2.80484  -0.00401  -1.00819 
C  -1.01119  -0.0192  -2.80459 
C  -4.28859  0.07185  -0.78607 
H  -4.5624  0.04202  0.28759 
H  -4.77318  -0.77528  -1.31333 
H  -4.65918  1.02145  -1.22942 
C  -0.79378  -0.0054  -4.29235 
H  0.22158  0.35453  -4.55412 
H  -1.54091  0.66601  -4.75806 
H  -0.95471  -1.03052  -4.68279 
N  0.0  0.0  1.91 
H  -0.59209  0.79641  1.70217 
N  0.02082  1.35512  3.81411 
N  -0.78412  2.85668  5.47128 
H  -0.38493  3.62764  4.88742 
H  -0.63336  3.12976  6.46877 
N  -0.57677  0.52634  5.98316 
H  -0.42876  0.69506  7.00473 
N  -0.17645  -0.95205  4.16454 
H  -0.11617  -1.89831  3.78425 
C  -0.01974  0.16019  3.31418 
C  -0.0107  1.64506  5.22879 
C  0.00583  -0.77042  5.57987 
C  1.51381  -0.85564  5.84768 
H  2.05885  -0.0944  5.24497 
H  1.89152  -1.84989  5.52109 
H  1.74171  -0.70127  6.91795 
C  -0.75671  -1.87288  6.31232 
H  -0.60971  -1.76447  7.40605 
H  -0.40365  -2.87446  5.987 
H  -1.84276  -1.78829  6.0818 
