123

Pd  0.0  0.0  0.0 
N  0.3601  -1.97561  0.0 
N  1.88765  0.0097  0.0 
N  0.15225  1.9659  0.0 
H  0.04177  2.30177  -0.98388 
H  -0.54534  2.45279  0.59097 
C  1.74142  -2.28395  0.03212 
C  2.5575  -1.23291  0.0035 
C  4.02983  -1.34298  -0.03206 
C  -0.61256  -3.01393  -0.0093 
H  -1.66792  -2.77603  -0.07445 
C  2.17595  -3.68975  0.13243 
H  3.22842  -3.94797  0.21295 
C  1.23908  -4.6465  0.16181 
H  1.54589  -5.68298  0.25718 
C  4.83278  -0.92871  1.04393 
H  4.38559  -0.52214  1.94326 
C  -0.20865  -4.30081  0.06703 
H  -0.9378  -5.10346  0.06538 
C  2.50504  1.30413  -0.11346 
H  2.71463  1.50187  -1.18486 
H  3.44039  1.38174  0.48065 
C  4.62937  -1.86602  -1.18419 
H  4.01609  -2.16498  -2.02519 
C  6.81573  -1.5854  -0.18913 
H  7.89223  -1.67864  -0.25286 
C  6.01604  -1.97773  -1.26697 
H  6.46887  -2.3654  -2.16962 
C  1.50179  2.30445  0.45201 
H  1.52335  2.20209  1.55044 
H  1.77531  3.3543  0.20558 
C  6.22513  -1.06404  0.9656 
H  6.84937  -0.76118  1.79746 
Cl  -4.37517  -0.77034  -5.90163 
N  -1.97471  0.0  -0.02529 
O  -0.02529  0.0  -1.97471 
C  -1.0361  -0.15002  -2.85034 
C  -2.36448  0.01124  -2.48016 
C  -2.70972  0.55734  -1.15579 
H  -3.80865  0.45796  -1.00677 
C  -2.66968  0.28559  1.28059 
H  -2.14176  -0.06285  2.1726 
C  -3.39334  -0.21615  -3.41498 
H  -4.43266  -0.09067  -3.13467 
C  -0.73016  -0.48381  -4.17732 
H  0.30186  -0.58843  -4.48331 
C  -1.74899  -0.67322  -5.11837 
H  -1.50139  -0.90917  -6.1455 
C  -3.08501  -0.55374  -4.73213 
C  -2.96377  1.79992  1.48079 
H  -2.1501  2.38621  1.9524 
H  -3.21888  2.2847  0.51279 
C  -4.23071  1.82492  2.29942 
H  -3.97823  1.57701  3.3511 
H  -4.74322  2.81294  2.25682 
C  -4.02296  -0.42377  1.48166 
H  -4.29172  -1.18236  0.72012 
H  -3.97527  -0.96094  2.46277 
C  -5.03755  0.69993  1.66501 
H  -5.37164  1.03058  0.65999 
H  -5.92149  0.39867  2.26555 
O  1.08981  2.5139  3.92365 
N  0.0  0.0  1.91 
N  0.82085  1.99216  6.12129 
N  -0.48286  -1.97823  4.73237 
C  0.75899  1.61251  4.87251 
C  0.31393  0.26186  4.3154 
C  -0.06533  -0.8779  5.23094 
H  0.01639  -0.82039  6.30141 
C  1.01451  -0.11747  2.95705 
C  1.42728  3.82399  4.16825 
H  2.17397  4.14039  3.41538 
H  1.88987  3.94203  5.17317 
C  0.17441  4.67522  4.06923 
H  -0.24794  4.60496  3.04565 
H  0.42251  5.72764  4.31082 
H  -0.59133  4.3088  4.78154 
C  0.48704  1.28598  7.31346 
C  -0.83967  1.35361  7.80869 
C  -1.16374  0.64812  8.98691 
H  -2.15938  0.6658  9.41428 
C  -0.18984  -0.08756  9.65638 
H  -0.44411  -0.61473  10.56704 
C  1.12567  -0.13966  9.17414 
H  1.84968  -0.71239  9.719 
C  1.48523  0.55123  8.00231 
C  -1.87224  2.2082  7.06632 
H  -1.78552  1.98721  5.97945 
C  -3.33604  1.91256  7.42315 
H  -3.56727  0.84853  7.22432 
H  -4.00692  2.52666  6.7851 
H  -3.55279  2.14977  8.48433 
C  -1.58328  3.69495  7.32562 
H  -1.71322  3.92512  8.40601 
H  -2.27519  4.33402  6.73833 
H  -0.54435  3.96448  7.05081 
C  2.90797  0.50644  7.47363 
H  3.03372  1.22528  6.63006 
C  3.93394  0.9157  8.53852 
H  3.70774  1.9318  8.92557 
H  4.9511  0.92513  8.09225 
H  3.93609  0.19653  9.38291 
C  3.22292  -0.87231  6.90859 
H  3.13447  -1.65384  7.6907 
H  4.2498  -0.88555  6.48639 
H  2.5183  -1.10453  6.08358 
C  -0.87105  -3.0831  5.54093 
C  -2.09756  -3.08852  6.23472 
C  -2.48918  -4.23756  6.94161 
H  -3.4303  -4.26248  7.48041 
C  -1.66267  -5.35995  6.97208 
H  -1.96426  -6.23596  7.52781 
C  -0.43904  -5.34564  6.30218 
H  0.19783  -6.22095  6.35758 
C  -0.0375  -4.22013  5.58331 
C  -2.98619  -1.88024  6.2364 
H  -3.96529  -2.08559  6.71981 
H  -3.16705  -1.52677  5.20049 
H  -2.47472  -1.08617  6.81529 
C  1.29949  -4.20021  4.8944 
H  1.97847  -3.50145  5.43528 
H  1.19528  -3.86024  3.84435 
H  1.77475  -5.20606  4.89607 
