39

Ru  0.0  0.0  0.0 
O  1.4149  1.29848  0.0 
O  1.66834  2.14498  2.77547 
H  1.06964  2.00033  2.01667 
N  1.4149  -1.29848  0.0 
N  3.99696  -0.58168  3.50117 
C  1.2226  -2.74832  0.03145 
H  0.2411  -3.23734  -0.061 
C  2.43552  -3.57605  0.31683 
H  2.33056  -4.65091  0.40662 
C  3.62616  -2.99098  0.46179 
H  4.49672  -3.60693  0.67063 
C  3.76622  -1.52028  0.35969 
H  4.75523  -1.09445  0.45905 
C  2.68329  -0.73532  0.16628 
C  3.4007  1.05895  -1.31452 
H  2.82783  0.58846  -2.14414 
H  4.43841  0.66067  -1.34188 
H  3.43848  2.15063  -1.50611 
C  2.72138  0.76242  0.03426 
C  3.50453  1.48879  1.18183 
H  4.53411  1.07212  1.21061 
H  3.59827  2.55087  0.87841 
C  2.90991  1.47136  2.64527 
C  3.85726  2.30049  3.52209 
H  3.9058  3.34566  3.14233 
H  4.88494  1.8838  3.52496 
H  3.47218  2.33282  4.56323 
C  4.01327  -1.83578  4.0205 
H  4.95583  -2.29718  4.28093 
C  2.81555  -2.52362  4.22069 
H  2.82297  -3.52306  4.63438 
C  1.61148  -1.90607  3.88188 
H  0.67583  -2.43253  4.02246 
C  1.61174  -0.60842  3.36577 
H  0.6701  -0.14378  3.10534 
C  2.83531  0.06042  3.1828 
Cl  -1.58392  1.58392  0.0 
Cl  -1.58392  -1.58392  0.0 
