62

Ni  0.0  0.0  0.0 
P  1.3915807073253077  1.4641048920757003  2.5148701815592007e-15 
N  1.3915807073253066  -1.4641048920757003  0.0 
C  1.5497836840668238  1.9365500008543108  1.7390419567512918 
C  0.4017769019638312  1.8884257200180459  2.538710001529601 
H  -0.42261273499255125  1.6350465243006815  2.190151111732545 
C  0.5526749941739364  2.2457929536308052  3.9054871180000754 
H  -0.1892917767656166  2.2176239609423583  4.4675491952410145 
C  1.7335433073742297  2.605161242643253  4.381582024223395 
H  1.8216086212372866  2.8236104273506175  5.281970131760834 
C  2.786802639468344  2.654945674342448  3.5879160304217996 
H  3.6125349703427023  2.8571270150388317  3.966013654353746 
C  2.7363805553818317  2.4276338903293717  2.239140075607505 
H  3.4669655458870263  2.596957872061674  1.6870857025074835 
C  0.1765278402604169  4.510366006384849  -1.3251759821568734 
H  -0.43660324218532964  3.8443901632076347  -1.5375394254405954 
C  -0.2139619075749728  5.857191483625346  -1.3256010602311705 
H  -1.079616965783595  6.080170873126026  -1.5832994344125955 
C  0.6253645636824109  6.819371910468123  -0.9697829875489508 
H  0.3407804043614302  7.702496143573376  -1.0198130301816808 
C  1.8745805958172757  6.560218500727053  -0.5372462893638718 
H  2.421497451042592  7.251782411537103  -0.24099639360766217 
C  2.3385713161791717  5.239313055039897  -0.5385558587845096 
H  3.199975642557954  5.056942029954766  -0.2374843129597117 
C  1.5145243281566307  4.168346597317736  -0.9955071449902102 
C  2.0368060785089948  2.830042459680384  -0.9992190759723805 
C  3.094164262532385  2.386066581641728  -1.7339181643062276 
C  3.83418769061712  3.1971799359017306  -2.7619913681331045 
H  4.544157873920961  3.6970615215457716  -2.3290184369312494 
H  3.2265819161016323  3.8293265874219315  -3.173795027353423 
C  4.426437693070964  2.29211784836143  -3.83372883238944 
H  3.7191657366995585  1.9675107573174189  -4.4040768017682606 
H  5.042869817283362  2.808311144409049  -4.378740343602266 
C  5.134697581414976  1.1553908733968874  -3.247026612391176 
H  5.5028179496687155  0.635626173395698  -3.975222026486491 
H  5.892390986787287  1.5145304697782178  -2.7467855867181923 
C  4.437810305586071  0.26175624921017215  -2.3788157317622765 
H  5.081674818533406  -0.21269125367002717  -1.8302007338103046 
H  3.971041682969241  -0.3947368888171967  -2.918839317046637 
C  3.4489899467075573  0.9441016401771103  -1.4826993524378373 
C  2.7404492289335733  0.3959135463157979  -0.48211826376732536 
C  2.6236655832041063  -1.0510096703648184  -0.119374228501748 
C  3.7280192957459213  -1.819360251725922  0.1752277431773489 
H  4.584727054660636  -1.4571200851432544  0.16724917629509373 
C  3.5125157916421967  -3.165271136024855  0.4909577563922652 
H  4.235742925455829  -3.737565351101268  0.6108170251444568 
C  2.236124994443398  -3.6390660592946906  0.6210912398236021 
H  2.077813943702392  -4.51247654164549  0.8973759309178208 
C  1.193683937224833  -2.7883215451949477  0.32769050029786273 
H  0.3249238921446236  -3.1196130582724964  0.353099306547528 
Br  -1.5839191898578664  1.5839191898578664  0.0 
C  -1.2937473829822488  -1.2398794889499034  -0.459800567 
C  -1.601562203225019  -1.4938654694550033  -1.7919791134 
H  -1.1309417375171225  -1.0428217585005106  -2.480879663 
C  -2.60218398542082  -2.411889969420291  -2.121542410022 
H  -2.8231586547736818  -2.5626138747145775  -3.032700502 
C  -3.2683208079706407  -3.09759503004543  -1.14306436557 
H  -3.9596020908062854  -3.707191723557817  -1.368328076 
C  -2.9347449854640226  -2.896087320001541  0.14198826503 
H  -3.3668350933519986  -3.405606940434718  0.81710224434 
C  -1.9675509241539992  -1.9516175659140573  0.5112421903 
H  -1.7755298364628027  -1.8022912010877177  1.4301324877 
