87

Fe  0.0  0.0  0.0 
S  -7.158986695118742  -0.7404313594982354  2.828662198214813 
S  7.602237990841811  1.1758166773160543  1.7142838235169544 
S  -10.905529086807551  -1.934730647446238  4.67181454354213 
O  1.521762590941987  -1.2164885493293027  -0.016012863117560745 
N  -1.6663383050675897  1.1912092933641372  -0.014481474109527305 
O  -1.1287940191371777  -1.5832660508492185  0.016066275656150625 
C  -10.16304157707642  0.25616608541497216  3.5508242430348784 
H  -9.690573003130638  0.8943347372859455  3.029936051190579 
N  1.2733697332627807  1.6085453068143838  0.01442806157093737 
C  -2.7764972540914807  0.7973693865153969  0.4912188973314531 
H  -3.4449881074122612  1.4621466465446304  0.6120286385549152 
C  9.147315966778685  0.5097039479085177  2.1512799562184437 
C  -4.899068441975608  -1.9650223516673635  1.7904790780434607 
C  4.580837050904043  0.4962110430986039  1.1289626364042151 
H  4.889711238154877  1.3719053829758663  1.3265415309174216 
C  -2.8452172106462945  -2.9475237852150498  0.8977424020612292 
H  -2.3409566956713963  -3.726218422019583  0.6929980598949398 
C  3.23615978044373  0.3162301247975335  0.7139393631352261 
C  -4.366405710217862  -0.7236401332057021  1.4787314046221822 
H  -4.880777103144443  0.05079169079274186  1.6733190458464144 
C  -3.12521569930081  -0.5526954298443209  0.8985995272077272 
C  6.848778752469007  -0.3844764500871191  1.6470663206691127 
C  10.32544605070412  1.362323236670381  2.370319002466062 
C  12.588966289524286  2.200811026297952  2.802253216319256 
H  13.514190675311754  2.3266635026339064  2.978692753113902 
C  11.736874744633393  3.1964089583706405  2.57801170192452 
H  11.970542116044339  4.117600858558132  2.5724320454066616 
C  10.425970745905975  2.6863087170752538  2.345482671584535 
H  9.679418558570754  3.2524741286303724  2.1861062042387607 
S  11.830831668611609  0.6667631680807057  2.735251684451121 
C  -0.6885794530682685  4.893295683716124  -0.395908643707567 
H  0.007820245704559137  5.466496908309583  -0.011067331380429594 
H  -1.5698989983386897  5.2285149643830575  -0.13340240950830004 
H  -0.6124357505017841  4.900195172120009  -1.3728824630186234 
C  2.4887969550577163  1.5339890004664845  0.4462339504881731 
H  2.9355769008208545  2.356964381553228  0.6054069450224696 
C  -0.6014612170459692  3.429258463312465  1.658450825865637 
H  0.10996350856564849  3.983989628612449  2.037547969132844 
H  -0.5030890169150304  2.508386236232665  1.9751005560636659 
H  -1.4738601060206369  3.779298879516678  1.9396761901899575 
C  3.648642163161885  -2.0734888283027852  0.5802646118159442 
H  3.342147569792263  -2.9592420121225653  0.41862841046144 
C  5.450669883835996  -0.5750553272266891  1.2552550612112685 
C  -2.3012450572593286  -1.6767350350403103  0.5829088130513032 
C  -1.636533007916312  2.590787544207086  -0.4974943973622259 
H  -2.5098166958812436  3.0153148840412074  -0.29695642572659514 
H  -1.525947975886275  2.585674055371902  -1.4815515211730579 
C  -9.73776319572674  -1.0461697871335414  3.7696252335031546 
C  -8.51630721880179  -1.7220672141877542  3.299765175043392 
C  -0.5097404614307024  3.4554624795088977  0.12277302355014377 
C  7.784729882069528  -1.344441710709818  1.9869094041607471 
H  7.577913846140402  -2.2695375758812784  2.0271274041760483 
C  -6.206474438177391  -2.1315220895701508  2.396890521185762 
C  9.05512711039437  -0.8477010505168994  2.26463503995202 
H  9.78867582142999  -1.3992535673744972  2.5092286001412196 
C  -6.9410708946817685  -3.282847027643575  2.6548579281608253 
H  -6.604654752099056  -4.157222596762018  2.494726878271779 
C  -11.90870159189662  -0.5616354920887633  4.807818070581516 
H  -12.742916893265738  -0.5626230907847707  5.26363921490289 
C  -4.0750283228569  -3.095267722616367  1.4881087859657276 
H  -4.385724103685315  -3.9665577207655414  1.699891459715567 
C  2.74110664101136  -0.9788961052658529  0.41007322922103495 
C  4.950224638106724  -1.8744540210293088  0.9723260054905555 
H  5.52876295142209  -2.6216727977286696  1.0560681082473022 
C  -11.397107951895723  0.5122270677106854  4.206830017312892 
H  -11.814182625058029  1.3639010842808725  4.217583923847809 
C  0.8659319673224306  2.9757201300173746  -0.39432443039138537 
H  0.856409801389747  3.0136368686255004  -1.3835998416340147 
H  1.5556486164098031  3.6120754509233453  -0.07959472171051807 
C  -8.220423117183406  -3.049005953252961  3.1715801869304285 
H  -8.824423552920344  -3.743413567199191  3.4100458434160017 
O  0.0  0.0  1.79 
N  0.0  0.0  -1.8699999999999999 
C  0.7113622246782852  0.024618678253306672  -3.017609561646216 
C  0.08681808374389766  0.013585447950992757  -4.255486746125204 
H  0.6098150542507825  0.04310113585281794  -5.047489797260931 
C  -1.289792139130062  -0.04049789618112942  -4.343652420661239 
H  -1.7246467527799312  -0.05533789871897421  -5.18878865779233 
C  -2.0199711149480994  -0.07313330290177567  -3.1666720922353555 
H  -2.968755524977367  -0.11889444747362232  -3.1878756516744273 
C  -1.345973716273786  -0.036786227983008235  -1.9610036731726732 
H  -1.8545896796792611  -0.03705837660394157  -1.1585803511634925 
C  2.2047473914332736  0.06382067263499042  -2.893364974831849 
H  2.4650578117128807  0.8008239494205929  -2.3022959136375247 
H  2.6020679249371157  0.19922028537265785  -3.7786733722430057 
H  2.523860437032268  -0.7834620196229085  -2.517825052148866 
