75

Pd  0.0  0.0  0.0 
N  0.2453  1.99535  0.0 
C  -0.6932  2.98293  -0.00663 
H  -1.74392  2.72864  -0.01028 
C  -0.30166  4.32659  -0.0134 
H  -1.05092  5.10879  -0.02356 
C  1.0557  4.65526  -0.00835 
H  1.35526  5.70056  -0.0245 
C  2.01701  3.63826  -0.0015 
C  1.57429  2.29521  0.00178 
C  2.49296  1.26823  0.00126 
C  3.86983  1.52006  0.00153 
H  4.59405  0.71877  -0.00176 
C  4.32255  2.85105  0.00037 
H  5.37765  3.06224  -0.00215 
C  3.39108  3.90762  -0.00024 
H  3.75445  4.92976  -0.00412 
N  1.91242  -0.01084  0.0 
C  2.46236  -1.16628  0.02117 
H  3.53561  -1.32172  0.03733 
C  1.49586  -2.25209  0.02133 
C  1.73486  -3.69353  0.03086 
H  2.68495  -4.20807  0.06584 
C  0.47585  -4.26202  -0.01596 
H  0.22781  -5.31528  -0.02054 
C  -0.43144  -3.22421  -0.0556 
H  -1.50816  -3.32828  -0.09133 
N  0.24228  -1.9845  0.0 
N  -1.8959  0.0  -0.1041 
N  -0.1041  0.0  -1.8959 
N  0.73212  -0.04742  -2.96681 
N  -1.44406  -0.15886  -3.72625 
C  -2.82959  0.0893  0.97178 
H  -2.51962  0.26414  1.97964 
C  -4.14504  -0.0252  0.7406 
H  -4.83844  0.02006  1.57576 
C  -4.65981  -0.17729  -0.64325 
H  -5.73065  -0.25384  -0.79633 
C  -3.82184  -0.18208  -1.69507 
H  -4.20836  -0.26036  -2.706 
C  -2.37105  -0.08471  -1.43575 
C  -1.40238  -0.07447  -2.3392 
C  -0.04009  -0.14157  -4.01782 
C  0.42844  -0.25462  -5.43466 
H  -0.04012  0.57436  -6.01138 
C  1.94345  -0.12303  -5.53946 
H  2.4409  -0.93397  -4.96588 
H  2.25572  0.86065  -5.12864 
H  2.25058  -0.17853  -6.60382 
C  -0.05018  -1.59325  -6.00846 
H  -1.15713  -1.68322  -5.92822 
H  0.40775  -2.43993  -5.45117 
H  0.22215  -1.67181  -7.08016 
N  0.0  0.0  1.91 
H  1.02848  -0.06111  2.0287 
H  -0.19188  0.82687  2.52062 
N  -0.30433  2.2674  7.83297 
H  -1.20202  2.33355  8.33356 
H  0.43744  2.95068  8.03866 
C  -0.48838  -1.21321  2.66811 
H  -0.57299  -2.09281  2.0583 
H  -1.51393  -1.11312  3.0548 
C  0.42721  -1.66378  3.80556 
H  0.12324  -2.66794  4.18401 
H  1.46839  -1.75652  3.42915 
C  0.27461  -0.67804  4.89936 
C  -0.94418  -0.60773  5.59263 
H  -1.75396  -1.29567  5.36696 
C  -1.13109  0.35973  6.57185 
H  -2.08012  0.40787  7.08987 
C  -0.10361  1.26783  6.85997 
C  1.11776  1.18456  6.16987 
H  1.9155  1.88343  6.37502 
C  1.31011  0.20694  5.1977 
H  2.24232  0.16271  4.64713 
