38

Fe  0.0  0.0  0.0 
F  5.0691  -0.91903  -0.09568 
F  2.49214  -4.8362  -0.23046 
N  1.35934  1.31328  0.0 
C  1.20743  2.73627  0.04445 
H  0.23672  3.21435  0.01082 
C  2.28094  3.51951  0.17511 
H  2.15444  4.59571  0.24029 
C  3.63278  2.92681  0.24307 
H  4.48507  3.58536  0.36626 
C  3.81768  1.59849  0.16193 
H  4.83108  1.24284  0.23576 
C  2.63138  0.69672  0.04086 
C  2.63958  -0.66532  -0.00343 
C  3.82778  -1.45252  -0.06104 
C  3.76182  -2.83935  -0.14307 
H  4.66175  -3.43298  -0.22642 
C  2.54683  -3.48162  -0.13335 
C  1.37291  -2.75801  -0.04892 
H  0.5656  -3.45586  -0.07708 
C  1.35934  -1.31328  0.0 
O  -1.16166  1.41458  0.0 
N  -1.16166  -1.41458  0.0 
O  -3.16866  2.41406  -0.00758 
N  -2.4879  1.28682  -0.00799 
O  -6.64535  0.61876  -0.07109 
O  -7.68963  -1.49742  -0.09108 
N  -6.62087  -0.69331  -0.08159 
N  -5.40468  1.08742  -0.04436 
C  -2.54301  -1.18208  -0.01669 
C  -3.3481  -2.36647  -0.03807 
H  -2.88899  -3.35089  -0.04231 
C  -3.13945  0.13416  -0.01778 
C  -4.72866  -2.31892  -0.06106 
H  -5.31841  -3.22682  -0.08184 
C  -5.2854  -1.06657  -0.05135 
C  -4.571  0.09983  -0.03894 
H  -0.96382  -2.38878  0.0086 
