56

Pd  0.0  0.0  0.0 
P  1.4935988007159084  1.5037495211969318  -1.1880705267330266e-17 
N  1.4935988007159084  -1.503749521196931  1.9081958235744878e-17 
C  2.8454637664343694  -1.42143537029933  0.10814173581498888 
C  3.5493540132273855  -2.4225297638667893  0.7728470883114853 
H  4.487684179697663  -2.337355462432564  0.8956274493921447 
C  2.8907236116365587  -3.540117700760909  1.2565099124039216 
H  3.374709000510184  -4.229610788130092  1.694855353610961 
C  1.522583686244681  -3.6430778931450543  1.0943650594699665 
H  1.0520217910418947  -4.414694567760138  1.3853596646418285 
C  0.8637867099350385  -2.5915418575815083  0.4974028078019146 
H  -0.08283761803621936  -2.633498908347371  0.4311610718342169 
C  3.6043270608994664  -0.2827843643544614  -0.49975845909725924 
C  3.1671824776048387  1.0609711557747272  -0.5523337899902879 
C  4.022004163038623  2.0483841883774803  -1.0511918250648313 
H  3.7351666802291543  2.954229524185645  -1.060874079457404 
C  5.282247251545376  1.7262219012604119  -1.5332934311921127 
H  5.858305110331774  2.4082524525876408  -1.8580444902922986 
C  5.695974772233483  0.4068311070935877  -1.5389344322658183 
H  6.541440881697618  0.17646752252248765  -1.9064489716396322 
C  4.876365677375476  -0.5803128780419529  -1.0093568418819412 
H  5.184804827539789  -1.4795857429294728  -0.9921552395463555 
C  1.6077966036914795  1.6028659916589576  1.8085965738878262 
C  2.8416438153224792  1.687991814274755  2.4471979539947437 
H  3.6395459194016677  1.7349175748521106  1.934339118348651 
C  2.9083291424759192  1.7044833407227644  3.834768491552336 
H  3.753084984883883  1.7487039233814183  4.2679505742692 
C  1.7530254449315321  1.6584602138492723  4.585793962647102 
H  1.8031690200814487  1.6759374662969284  5.534519369452516 
C  0.5195615394460267  1.5858679114336995  3.9608272423375306 
H  -0.2754702828059885  1.5629225275691474  4.481208910890496 
C  0.44282606801568813  1.5461087267043094  2.5755741771346323 
H  -0.40335487726838126  1.4800930448366376  2.1489581230699475 
C  1.1086331595922625  3.160222896508344  -0.6290749415122874 
C  1.0230185238162233  4.26966568367683  0.20988057348285666 
H  1.2690697888680367  4.19496639804674  1.125021268508913 
C  0.5772714957347715  5.483301750903878  -0.2956497948257443 
H  0.5017799001361272  6.2343921745942525  0.2801041668927919 
C  0.24269459624547118  5.608210768231772  -1.6309001480248637 
H  -0.06924250913815944  6.4392565889514985  -1.9670693110204955 
C  0.36344718425350897  4.516978141474977  -2.4779553155262697 
H  0.1626035772159513  4.610030679831645  -3.401596350029157 
C  0.7762811668349114  3.2933468092199885  -1.9839924064431278 
H  0.834084610913868  2.5430461613421818  -2.5631691667216954 
Br  -1.654629867976521  1.654629867976521  0.0 
C  -1.35204078  -1.31992066  -0.4819701 
C  -1.63807002  -1.59921746  -1.81393823 
H  -1.15796809  -1.15933936  -2.50351594 
C  -2.63068217  -2.5263265  -2.14228996 
H  -2.83682226  -2.69439953  -3.05388981 
C  -3.31015444  -3.19615732  -1.16198741 
H  -3.99601236  -3.81199015  -1.38686634 
C  -2.99747104  -2.9701089  0.1242356 
H  -3.43865917  -3.46858118  0.80170842 
C  -2.03898543  -2.01594063  0.49125628 
H  -1.86191301  -1.84921651  1.41015686 
