38

Ni  0.0  0.0  0.0 
P  1.445760740924998  -1.4106296041130004  -2.2975763669484916e-16 
N  1.445760740924998  1.4106296041130004  1.6031460444159857e-16 
C  1.2739726065989418  2.6954351084889145  0.28834110499567533 
H  0.3969107638262015  3.003929541564161  0.478786815668533 
C  2.327941355589022  3.6164565419054817  0.32439683047167317 
H  2.163230485811495  4.523999227999178  0.554307992216747 
C  3.5909174875128738  3.202524693107259  0.028561733261745426 
H  4.302742994423399  3.829660375940363  -0.016950166600279957 
C  3.83066621490845  1.8326928574745163  -0.20996059231647896 
C  5.123274791498092  1.2797353286337168  -0.4375762750476301 
H  5.871244305286975  1.8592222312313724  -0.518746196571704 
C  5.305544545579441  -0.06669891212098918  -0.540413486554094 
H  6.175468870576451  -0.41469081486336  -0.6992551511268663 
C  4.21052949081551  -0.9483260638366964  -0.412243540006514 
H  4.348525722311433  -1.8885461018487117  -0.44282670880256403 
C  2.942750470664782  -0.4421561961987835  -0.24374822505338617 
C  2.7384718193302784  0.9545191282488774  -0.16786304410230257 
C  1.656900375474761  -2.2616622752689866  1.5832965064533362 
H  1.7335193389804044  -1.5995157576596934  2.3013425799397313 
H  2.469374680575255  -2.80848564956293  1.5549523557822735 
H  0.8811853970354872  -2.8375833658453056  1.7498873515029838 
C  1.503947980143728  -2.697139198629225  -1.27100565239099 
H  2.3788374739331895  -3.137747546977918  -1.2488156316097525 
H  1.3640492834908546  -2.2926344595139594  -2.1515440392363008 
H  0.8001285691536665  -3.358050835023123  -1.0987992483499278 
Br  -1.5839191898578664  1.5839191898578664  0.0 
C  -1.308147545195113  -1.308147545195113  0.0 
C  -2.5481111008682706  -1.081588847540519  0.5874691967409313 
H  -2.7399447190521347  -0.23895174706744582  0.9782000501948406 
C  -3.514692573752534  -2.090568128666735  0.6049610958635798 
H  -4.3504064840370384  -1.9365173000894942  1.0287619599160838 
C  -3.2692344052199704  -3.300825455744854  0.016423527177974795 
H  -3.920165040096455  -3.990528127682657  0.045080339651694334 
C  -2.0939695739763726  -3.5035118821402764  -0.6007549227026172 
H  -1.9425337635726068  -4.327915038834382  -1.0474288760065322 
C  -1.0854604411866036  -2.53050399443706  -0.5998012209931928 
H  -0.24896772463074335  -2.712575304189299  -1.0129111498427692 
