85

Fe  0.0  0.0  0.0 
N  1.3152480925665697  1.329293968616422  2.952082269083866e-15 
N  1.3152480925665697  -1.3292939686164225  -2.220446049250313e-16 
F  0.6058423988068609  -1.2148151034498347  5.300234037388546 
F  2.2956065412769773  0.06965915530059763  5.464968858934655 
F  1.9572496424474746  -1.01157137679605  3.6782684152461878 
F  -3.228717352162417  1.6295042000788902  5.578726525295451 
F  -2.356692987549528  3.5914828380430333  5.816059775586824 
F  -3.5477829431952292  3.145790012387132  4.094852213228684 
F  0.8182331562425083  0.4277247609810415  -5.302929607954001 
F  2.0237077506845345  -0.673231663671405  -3.9884103029715945 
F  2.8705469438786246  0.0028965714814817023  -5.7965978735791 
F  5.944685665194119  4.5460801505703445  -3.6426206130662644 
F  5.489424285462295  4.0247949109169685  -5.62626432730638 
F  4.5097821037658585  5.688308093258117  -4.754316199251544 
C  2.457357719110914  0.7580077535812197  -0.03575222322494065 
C  2.4775350941736303  -0.7397947280416556  -0.027358202738173326 
C  3.9006960269757673  -1.2780306464252251  0.06893460855929345 
H  3.9449959178624576  -2.2771675238627878  0.05720601905581291 
C  4.665754925556544  -0.6350899499519244  -1.0767380333942531 
C  5.43180748587457  -1.3401866419767567  -2.044780098454387 
H  5.442089718251354  -2.289592446709005  -2.066800399044088 
C  6.145222786350948  -0.6065363787358401  -2.9352310068669665 
H  6.6591749969209255  -1.052826529000704  -3.598256682860578 
C  6.145131272892339  0.7669591783833547  -2.9008207438758458 
H  6.654866817565873  1.2441873649072748  -3.543958701458423 
C  5.422948386361378  1.478280802737197  -1.9581438505934876 
H  5.44792417879433  2.426907208762719  -1.930577900882871 
C  4.665891294600593  0.7536671749460782  -1.0604518598560577 
C  3.8498346133221277  1.3248602992105991  0.09538648426207641 
H  3.8571894748156224  2.3246495342308156  0.11624365449449064 
C  4.333595546267994  0.7157657466770249  1.3739397001390299 
C  4.699461215122802  1.3828233019918392  2.5767498348863622 
H  4.63857169982618  2.3305530515755652  2.618397508061574 
C  5.1213495056118115  0.7142745001606028  3.6409654004172696 
H  5.345972403052456  1.185243277406784  4.435422941639357 
C  5.233716166159918  -0.6358934930546692  3.601697554865046 
H  5.578085315889114  -1.0906857205626597  4.361998001078988 
C  4.858607072230746  -1.383356239037163  2.4766289431706365 
H  4.927050320921381  -2.331416863514166  2.473588544356839 
C  4.379126391802886  -0.6878643186440646  1.3507043427801917 
C  1.1556874659623002  -2.7408332701547984  0.15314900146658048 
C  0.2550482698178056  -3.3689976376416326  -0.6509428687746848 
H  -0.24959753918202732  -2.8887832606333532  -1.2975753915984831 
C  0.09758758668053358  -4.76090656725621  -0.48437974282796364 
H  -0.49812637402765136  -5.225999898450283  -1.058769767372408 
C  0.7599773918708281  -5.448621137233163  0.45679771983325734 
H  0.6367669084373382  -6.387248769237439  0.5418830018162875 
C  1.6288509127182196  -4.7748092858694875  1.30203942711712 
H  2.080529869169125  -5.255339834477068  1.9847975996455225 
C  1.8438547502565594  -3.4298269702866624  1.1692302383791053 
H  2.4445961316283076  -2.9738369114203778  1.7473128872474948 
C  1.1728547618256875  2.763190221063806  0.058933492836124424 
C  1.5115031390536915  3.574797488132746  -1.029077504645865 
C  1.2714899616221704  4.9409079444151285  -0.9112093753862164 
H  1.4716738973185328  5.515556937064263  -1.6420128216947738 
C  0.7457950586763121  5.477070720916567  0.25088695715728215 
H  0.6009193016052545  6.414336682708886  0.3051000725317824 
C  0.4368913978866247  4.702786025958326  1.3056338981361006 
H  0.09844435019625641  5.101362351066805  2.0977980218962546 
C  0.6094962137932742  3.3045394726134827  1.2464656331192583 
C  0.1948040161101623  2.4852226806072815  2.41455852990332 
C  -0.993291587464842  2.8154202782514286  3.0480334885842977 
H  -1.5362119554124412  3.5006111288110064  2.677789484747498 
C  -1.4190219747818686  2.172847555312615  4.210813907687537 
C  -0.6482112284945305  1.1144759548875114  4.721685054672347 
H  -0.940584941734586  0.6338120121593012  5.487325052299986 
C  0.5300102188764176  0.7811303515359755  4.102826904785552 
C  0.9817754371677188  1.472321398582038  2.9876651389301783 
H  1.82741126395358  1.2607445678432865  2.6109334663159283 
C  -2.6422719037063898  2.633066911936001  4.916879262435505 
C  1.3119186738890523  -0.37873492762779215  4.615014880210739 
C  2.188581034537762  3.1153841533715623  -2.2655883704656823 
C  1.8331110881420896  1.981179906158089  -2.9559816951816495 
H  1.1474151290046577  1.4229756168748708  -2.6093403199126213 
C  2.454757882087031  1.6322550964843012  -4.141563308050286 
C  3.4643274360792358  2.4353715704958208  -4.67878093138677 
H  3.8931318726524875  2.1936136429137902  -5.490753196692891 
C  3.820187076973763  3.5647410594453337  -4.0213320030186965 
C  3.2171604728728123  3.939838398161897  -2.795301073052247 
H  3.4936329172812535  4.725320650132674  -2.338223553016814 
C  2.064731308350221  0.36051848674135223  -4.848842685113288 
C  4.929764993199807  4.444079657676267  -4.512347621390153 
Cl  -1.5202795795510768  1.5202795795510768  0.0 
Cl  -1.5202795795510768  -1.5202795795510768  0.0 
