68

Pd  0.0  0.0  0.0 
O  3.7721071487586135  1.3502201683261286  0.09845730044020724 
O  3.707593097745809  -1.4462306233145412  -0.003266822334032119 
N  0.2977258656142656  2.0715971150926986  7.402932433731024e-16 
N  1.8792664228229987  -0.012371684074861888  1.0399233557611964e-14 
N  0.22300771156273547  -2.059225431017837  -1.1139093120116073e-14 
N  2.15616316878391  3.5610335400681015  -0.07830157178521839 
N  2.0363415405645244  -3.6025137071953672  0.014577078263370727 
C  -0.5414707959577754  3.1116700975267166  -0.0028239010513345466 
H  -1.4775829960085247  2.953837192058296  0.015021066517744623 
C  -0.07499233429156793  4.408190216862822  -0.031153654989932427 
H  -0.6714290402528398  5.146877571649122  -0.021194856825198432 
C  1.2949200113236545  4.593280634034852  -0.0764225494107637 
H  1.6375934917695927  5.478781322885017  -0.10616806747572365 
C  1.6141924107019212  2.3625738482888994  -0.03187469848388683 
C  2.569128107347508  1.1643023303918398  0.02866565721942001 
C  2.5116453293612735  -1.2120943396084296  0.002044104924080766 
C  1.5227443628901818  -2.3798188403346425  0.009139097260868914 
C  1.1373577833254258  -4.593009458940811  -0.01995059172028833 
H  1.4538746231199935  -5.488516959614912  -0.0402283224336619 
C  -0.21760613214365998  -4.38050819005992  -0.026468912109298175 
H  -0.8309591404884265  -5.105999065540954  -0.030414383968115837 
C  -0.6569580664929331  -3.0713509761763396  -0.025610355102662002 
H  -1.5880017384858764  -2.8855473871949275  -0.04347420585002074 
H  -2.9618754495788484  -0.5798214941338458  2.676958816437972 
O  -2.310807306823699  -0.4232004579198123  2.1119834767065027 
N  -1.9226730467776758  -3.0531133177191805e-16  -0.07732695322232419 
C  -2.8180882610749114  -0.24483577067494008  0.8974616235486117 
H  2.72328230971922  -0.5471521829842955  -2.7535437015619335 
O  2.1024021654137512  -0.39795324702722146  -2.2445004579013483 
N  -0.07732695322232397  3.0531133177191805e-16  -1.922673046777676 
C  -4.189160448737962  -0.3103747964657587  0.6456865407557801 
H  -4.796898539981157  -0.5049506353677408  1.3483989110523042 
C  -4.6466958698599345  -0.09236243280451345  -0.6227619634057473 
H  -5.580510886007609  -0.08153598130221162  -0.8026467141908298 
C  -3.7329287269867706  0.11336888378623133  -1.6470013074945207 
H  -4.03191366485785  0.26111689972129126  -2.536406429311061 
C  -2.3919396602959306  0.0993181195648542  -1.3610370281859892 
C  -1.3484044214516522  0.09602867867359023  -2.399736462511844 
C  -1.6236607252311779  0.06994796156461588  -3.7571107857641772 
H  -2.5112389725434285  0.19399441180768665  -4.071673979860732 
C  -0.5815538093686691  -0.13944497074490322  -4.648000136811984 
H  -0.7507710151512369  -0.1602172258236703  -5.582534561371135 
C  0.6854416399774462  -0.3160937409018191  -4.178446579336038 
H  1.4027687105847304  -0.48980614051590854  -4.777045506827799 
C  0.9135393943071586  -0.23659555364478793  -2.8021010912071915 
S  0.0  0.0  2.23 
O  -0.23329847103953472  2.16027773139197  3.6753654370651665 
N  -0.1381270983740146  0.2572974557520816  4.907843157087113 
C  -0.1358087008455362  0.8144305108352332  3.7762089476507716 
C  -0.24386077163347775  2.8684714566322405  4.931101004506207 
H  -1.0684095179101145  2.6884538655844867  5.409185047250774 
H  0.5115766090975489  2.5992276652652895  5.476673295412368 
C  -0.15331822792169203  4.339725823420765  4.599292330743911 
H  -0.15866485993817792  4.862665003520053  5.416219602563848 
H  -0.9093285829709687  4.5942294897264055  4.047423182398712 
H  0.6708022832663902  4.5049866214901115  4.1150484441943975 
C  0.00959387394237421  -1.1360974007533549  5.05333225702967 
C  1.249136516730151  -1.7169842085956064  5.057035388884367 
H  2.0363099879061988  -1.1870902723785088  4.8561600976288135 
C  1.3730008182426037  -3.0669151360941243  5.349352572426193 
H  2.2552952770108674  -3.4692908810856067  5.366946544955578 
C  0.30735258042181623  -3.8256967600422613  5.605778117932249 
H  0.418334609637687  -4.770416225184762  5.796197422027173 
C  -0.9554910349542415  -3.265536880406525  5.601688820876992 
H  -1.731800301435991  -3.8156735687477017  5.790376411660205 
C  -1.1098424252632082  -1.9182330804632548  5.326077193821616 
H  -1.9934525639686789  -1.5178312098669284  5.321894515270628 
