117

Pd  0.0  0.0  0.0 
N  1.87313  -0.02241  0.0 
N  0.25266  2.08137  0.0 
C  0.27421  -2.05897  0.0 
C  -0.68021  -3.0819  0.02511 
H  -1.7358  -2.85503  0.0276 
C  -0.24152  -4.42526  0.05225 
H  -0.95651  -5.234  0.0726 
C  1.12915  -4.73701  0.06132 
H  1.47124  -5.76357  0.09244 
C  2.07332  -3.71967  0.02896 
H  3.13214  -3.95107  0.03565 
C  1.63695  -2.40252  -0.00984 
C  2.55811  -1.26174  -0.04862 
C  4.04363  -1.21623  0.07002 
H  4.62154  -2.13311  0.07989 
C  4.63681  -0.01769  0.23902 
C  6.07735  0.08667  0.43042 
C  6.95391  -0.60669  -0.3967 
H  6.5417  -1.21834  -1.18937 
C  8.33929  -0.44476  -0.25098 
C  8.80917  0.34828  0.81924 
H  9.86247  0.44449  0.97173 
C  7.93104  1.01532  1.69713 
C  6.56059  0.90554  1.45006 
H  5.85176  1.42171  2.08487 
C  9.28784  -1.11661  -1.25436 
C  8.85519  -0.78881  -2.70187 
H  9.56389  -1.24749  -3.42477 
H  8.84069  0.31005  -2.86714 
H  7.85352  -1.19869  -2.94259 
C  9.23973  -2.63416  -1.03444 
H  9.58454  -2.87768  -0.00568 
H  9.89324  -3.15434  -1.76486 
H  8.20288  -3.01678  -1.15184 
C  10.74488  -0.61702  -1.11034 
H  11.18318  -0.90251  -0.13204 
H  10.77217  0.49219  -1.21656 
H  11.39204  -1.04504  -1.9031 
C  8.41611  1.84466  2.89883 
C  9.947  1.76613  3.09805 
H  10.49101  2.14275  2.2065 
H  10.25342  0.7151  3.30175 
H  10.26362  2.38511  3.96342 
C  8.02279  3.31763  2.69282 
H  8.45952  3.70114  1.7457 
H  8.3944  3.93941  3.53546 
H  6.91967  3.43533  2.64469 
C  7.75621  1.31319  4.1926 
H  8.10785  1.88669  5.07638 
H  8.00239  0.23957  4.34238 
H  6.65098  1.40965  4.16237 
C  3.85654  1.24446  0.25084 
H  4.39209  2.18025  0.34145 
C  2.52925  1.21552  0.11781 
C  1.64626  2.39172  0.06989 
C  2.09368  3.6632  0.07631 
H  3.14949  3.89865  0.12557 
C  1.15382  4.78912  0.03756 
H  1.55301  5.79498  0.12817 
C  -0.16392  4.57116  -0.08343 
C  -1.13407  5.68015  -0.06734 
H  -0.78211  6.70303  0.00555 
C  -2.45375  5.4254  -0.11098 
H  -3.15885  6.24405  -0.07931 
C  -2.9871  4.04422  -0.15397 
H  -4.05655  3.86939  -0.12746 
C  -2.18  2.98745  -0.18714 
H  -2.6465  2.04052  -0.14946 
C  -0.69495  3.16994  -0.22794 
O  -2.14299  0.28359  -5.2782 
O  0.6396  0.0  -1.96365 
O  -1.9996  0.0  -0.51635 
O  -5.74649  1.3201  -3.66353 
N  -3.68342  0.43048  -3.59555 
C  -2.45545  0.17941  -4.10286 
C  -1.49382  0.04883  -2.9846 
C  -0.14711  -0.03184  -3.05506 
C  0.56342  -0.17583  -4.36598 
H  0.36877  0.68915  -5.02701 
H  0.22624  -1.12067  -4.8482 
H  1.65804  -0.26479  -4.19306 
C  -2.36915  0.07072  -1.80358 
C  -3.63968  0.19479  -2.1968 
C  -4.82114  0.12149  -1.23076 
H  -4.46254  -0.26043  -0.24858 
C  -6.12774  -0.60048  -1.59845 
C  -7.09427  -0.61928  -0.58284 
H  -6.85419  -0.22644  0.39554 
C  -8.37521  -1.12327  -0.81006 
H  -9.1027  -1.11454  -0.00993 
C  -8.72702  -1.60527  -2.06774 
H  -9.73591  -1.9549  -2.24966 
C  -7.77729  -1.63928  -3.08814 
H  -8.05844  -2.01127  -4.06596 
C  -6.47011  -1.1701  -2.85239 
H  -5.78638  -1.22363  -3.68068 
C  -4.765  0.91924  -4.2773 
C  -4.80568  1.01341  -5.76135 
H  -4.0789  1.76496  -6.13166 
H  -5.83156  1.29597  -6.08274 
H  -4.58356  0.00725  -6.17464 
N  0.0  0.0  1.91 
C  0.16388  -0.47512  3.27066 
C  -0.43993  1.31829  2.30934 
N  0.22417  -1.74255  3.73818 
C  0.1011  0.57693  4.1836 
N  -0.10992  1.76234  3.56527 
H  -1.05586  1.96243  1.7628 
C  0.22152  -1.94464  5.12756 
H  0.21797  -2.55151  3.08051 
C  0.10372  0.41469  5.53692 
H  -0.29421  2.69693  3.96708 
N  0.15417  -0.86109  6.00327 
O  0.21322  -3.0667  5.57142 
O  0.00629  1.37187  6.2891 
H  0.11802  -1.00082  7.04071 
