38

Ni  0.0  0.0  0.0 
P  1.4422729448686196  1.4141954435296418  -3.9356273409190746e-17 
N  1.4422729448686196  -1.4141954435296418  -1.1102230246251565e-16 
H  1.1783252600555851  -2.0819702651221883  0.5748297376866347 
H  1.5825739506993073  -1.8014633013817951  -0.8231281334260881 
C  1.5720860336476332  2.8162801900701506  -1.1218338092160183 
C  2.7323494302585027  -0.8787831365077876  0.4806234111377403 
H  3.4642792106569607  -1.5073070997738087  0.2594424803000288 
H  2.7061211009447135  -0.7611745020287488  1.462402033759663 
C  2.9732871342656964  0.4551561882376469  -0.19623801536361074 
H  3.179057898477576  0.3247654980090262  -1.155308200750151 
H  3.733035641840578  0.92607309936687  0.2297961124363096 
C  1.4973612236132032  2.0663909687096584  1.677762563201418 
H  2.3162877999667493  2.590175742157398  1.7984276105273902 
H  1.4875703709954855  1.32380757629047  2.317227139630959 
H  0.7174653381943134  2.639151207547906  1.8314855826638574 
C  1.6252421773642287  2.5790251476111146  -2.4958121384530294 
H  1.5466611090215316  1.6922989028495175  -2.8281757383690254 
C  1.6589053712548787  4.126640128987008  -0.6442770135369529 
H  1.6054539395537395  4.298587935856677  0.2889156333274667 
C  1.7940138886538084  3.643906672219445  -3.376311257144382 
H  1.8359652688166894  3.483185969830026  -4.311885277479463 
C  1.8234230130910798  5.182715399087181  -1.5399676685108288 
H  1.8816686563127458  6.073450060808353  -1.2170350324175305 
C  1.9008784974319872  4.932968122912623  -2.8926789776928308 
H  2.028609474837548  5.654371278090173  -3.4984950100912133 
Br  -1.5839191898578664  1.5839191898578664  0.0 
C  -1.2937473829822488  -1.2398794889499034  -0.4598005675376139 
C  -1.601562203225019  -1.4938654694550033  -1.7919791134336869 
H  -1.1309417375171225  -1.0428217585005106  -2.480879663633267 
C  -2.60218398542082  -2.411889969420291  -2.121542410022959 
H  -2.8231586547736818  -2.5626138747145775  -3.03270050271447 
C  -3.2683208079706407  -3.09759503004543  -1.143064365570095 
H  -3.9596020908062854  -3.707191723557817  -1.3683280760515548 
C  -2.9347449854640226  -2.896087320001541  0.14198826503765638 
H  -3.3668350933519986  -3.405606940434718  0.8171022443470677 
C  -1.9675509241539992  -1.9516175659140573  0.5112421903797603 
H  -1.7755298364628027  -1.8022912010877177  1.4301324877763764 
