7
Ligand ID: unq_CSD-PAFCIJ-01-b  ===  Stoichiometry: C2H3N1  ===  Charge: 0  ===  Denticity: 1
Pt  0.0  0.0  0.0 
N  -2.0105999999999997  0.11529999999999996  0.3854999999999995 
C  -3.1150999999999995  0.10030000000000028  0.6735999999999995 
C  -4.5227  0.07170000000000032  1.0629 
H  -4.9831  0.8428  0.6066000000000003 
H  -4.7003  -0.1503000000000001  2.0469999999999997 
H  -4.9984  -0.6393  0.5378999999999996 
10
Ligand ID: unq_CSD-PAWQIO-01-a  ===  Stoichiometry: C3H5O1  ===  Charge: -1  ===  Denticity: 1
Pd  0.0  0.0  0.0 
O  -0.41110000000000113  -2.0968999999999998  -3.1706000000000003 
C  -0.6592000000000002  -0.06989999999999874  -1.982099999999999 
H  -1.6207000000000011  -0.3069999999999986  -1.9872999999999994 
H  -0.5728000000000009  0.8345000000000002  -2.3766 
C  0.06620000000000026  -1.0276999999999994  -2.836499999999999 
C  1.4344999999999999  -0.6120999999999999  -3.3057 
H  1.7683999999999997  -1.450099999999999  -3.2278000000000002 
H  1.3095999999999997  -0.3155000000000001  -4.153499999999999 
H  1.9894999999999996  -0.1144999999999996  -2.7807999999999993 
16
Ligand ID: unq_CSD-PAGMIT-01-d  ===  Stoichiometry: C5H10  ===  Charge: -2  ===  Denticity: 1
Re  0.0  0.0  0.0 
C  1.0050000000000001  -0.2431000000000001  1.5344000000000002 
C  1.4197  0.19019999999999992  2.881 
C  2.8014  0.6638000000000002  2.8150999999999997 
C  0.38939999999999997  1.3304999999999998  3.3755 
C  1.2268000000000001  -0.8975000000000004  3.8865000000000003 
H  1.5037999999999998  -1.0905  1.3976000000000002 
H  3.404  -0.00280000000000058  2.5349 
H  2.8992000000000004  1.4181999999999997  2.1557999999999997 
H  3.1201  1.0321999999999996  3.6557 
H  0.5497999999999998  1.6989  4.216100000000001 
H  0.4244999999999999  2.1549999999999994  2.7492000000000005 
H  -0.5335000000000001  1.0672999999999995  3.3096 
H  0.2558  -1.0729000000000002  3.9029000000000003 
H  1.6923000000000001  -1.6167000000000002  3.6887000000000003 
H  1.4332999999999998  -0.5291000000000001  4.76 
15
Ligand ID: unq_CSD-POLREQ-01-c  ===  Stoichiometry: C4H8O2  ===  Charge: 0  ===  Denticity: 1
Ho  0.0  0.0  0.0 
O  1.9348  0.561399999999999  1.2527000000000008 
O  3.6811000000000003  1.001999999999999  2.5564 
C  3.2475  2.535399999999999  0.8368000000000002 
H  2.9048000000000003  2.5009999999999994  -0.08119999999999905 
H  4.2219999999999995  2.6313999999999993  0.8183000000000007 
H  2.8517  3.2996999999999996  1.3046000000000006 
C  2.8863000000000003  1.2809999999999988  1.5455000000000005 
C  3.3196  -0.12850000000000072  3.4026000000000014 
H  3.2875  -0.9580000000000002  2.8618000000000006 
H  2.426  0.018499999999999517  3.8004000000000016 
C  4.3370999999999995  -0.2638999999999996  4.476100000000001 
H  5.2101  -0.4604999999999997  4.0769 
H  4.0816  -0.9946999999999999  5.077900000000001 
H  4.3903  0.5726999999999993  4.983100000000002 
16
Ligand ID: unq_CSD-POXXIM-01-a  ===  Stoichiometry: C7H7S1  ===  Charge: -1  ===  Denticity: 1
Hg  0.0  0.0  0.0 
S  0.7371000000000016  2.2009  0.6286000000000005 
C  1.7225000000000001  2.0329000000000006  2.069 
C  2.5936000000000003  3.083  2.3893000000000004 
C  3.4117000000000015  3.0201000000000002  3.4874 
C  3.421100000000001  1.9207999999999998  4.333500000000001 
C  2.568200000000001  0.8730000000000002  4.019299999999999 
C  1.7243000000000013  0.9318  2.9241 
C  4.3529  1.8566000000000003  5.531499999999999 
H  2.624600000000001  3.8583  1.8066000000000004 
H  4.066700000000001  3.7025000000000006  3.7082999999999995 
H  2.603900000000001  0.07960000000000012  4.507 
H  1.1136000000000017  0.19799999999999995  2.7885999999999997 
H  5.158100000000001  2.0163  5.276199999999999 
H  4.029800000000002  2.3712999999999997  6.1927 
H  4.3344000000000005  0.9513000000000003  5.9472000000000005 
15
Ligand ID: unq_CSD-PAFGAG-01-e  ===  Stoichiometry: C5H9  ===  Charge: -3  ===  Denticity: 1
Mo  0.0  0.0  0.0 
C  -1.2059999999999995  1.2332  -0.23570000000000046 
C  -2.3689999999999998  2.1736999999999993  -0.3792 
C  -2.5794999999999995  2.4975999999999994  -1.8635000000000002 
H  -2.7404999999999995  1.6845999999999997  -2.3481 
H  -1.7944999999999998  2.926899999999999  -2.2116000000000002 
H  -3.3343999999999996  3.0842  -1.9599000000000002 
C  -2.0980999999999996  3.473  0.3934999999999995 
H  -2.8467999999999996  4.067099999999999  0.2953000000000001 
H  -1.3083  3.894099999999999  0.04499999999999993 
H  -1.9701999999999997  3.272899999999999  1.3232999999999997 
C  -3.6213999999999995  1.4796999999999993  0.1921999999999997 
H  -4.3778999999999995  2.0619999999999994  0.10470000000000024 
H  -3.4787999999999997  1.2756999999999996  1.12 
H  -3.7861999999999996  0.6662999999999997  -0.29200000000000026 
16
Ligand ID: unq_CSD-PESDEX-01-b  ===  Stoichiometry: C5H6N3O1  ===  Charge: -1  ===  Denticity: 1
Pt  0.0  0.0  0.0 
O  -3.7455000000000003  -2.1917999999999997  2.6408 
N  -5.1362000000000005  -1.4262000000000001  1.0196999999999998 
N  -2.7898000000000005  -1.1103999999999998  0.8879999999999999 
N  -1.8458000000000006  -0.0596000000000001  -0.9151000000000002 
H  -2.0243  0.3397000000000001  -1.6342 
C  -6.2902000000000005  -1.9201  1.7752999999999997 
H  -7.112900000000001  -1.7280000000000002  1.2786 
H  -6.3242  -1.4768  2.6481 
H  -6.2074  -2.8874  1.9042999999999997 
C  -3.8736  -1.5873  1.5465999999999998 
C  -2.9271000000000003  -0.4946999999999999  -0.3168000000000002 
C  -4.232100000000001  -0.3618000000000001  -0.8932000000000002 
H  -4.346  0.038200000000000234  -1.7476000000000003 
C  -5.2895  -0.8100999999999998  -0.20620000000000016 
H  -6.1619  -0.7038000000000002  -0.5684000000000002 
13
Ligand ID: unq_CSD-PAYMAF-01-a  ===  Stoichiometry: C3H5N3S1  ===  Charge: 0  ===  Denticity: 1
Co  0.0  0.0  0.0 
S  3.1489000000000003  2.9871999999999996  1.2927000000000002 
C  1.6494  2.4627  0.6050000000000002 
N  1.5551  1.1593  0.5031000000000001 
N  2.6901  0.49879999999999924  0.9732000000000001 
C  3.5923  1.2914999999999992  1.4002999999999999 
N  0.7151999999999998  3.314099999999998  0.19450000000000012 
H  -0.008500000000000174  3.0180999999999987  -0.16510000000000002 
H  0.8335999999999999  4.160299999999998  0.2885 
C  4.9102  0.8729999999999993  1.9443 
H  5.6081  1.1675999999999984  1.3550000000000002 
H  4.9361  -0.08360000000000056  2.0189000000000004 
H  5.0373  1.2645  2.8119999999999994 
10
Ligand ID: unq_CSD-SIRPOB-01-a  ===  Stoichiometry: C2H5N1S1  ===  Charge: 0  ===  Denticity: 1
Pd  0.0  0.0  0.0 
C  0.8300000000000001  -0.11050000000000004  -3.1161000000000003 
C  0.6958000000000002  -0.27879999999999994  -4.5961 
H  0.09509999999999996  0.38649999999999984  -4.9411000000000005 
H  0.3500000000000001  -1.1529  -4.7885 
H  1.5566  -0.17720000000000002  -5.008800000000001 
N  1.9151000000000002  0.4540000000000002  -2.6621 
H  2.5253  0.7151999999999998  -3.2086 
H  2.0210000000000004  0.5640000000000001  -1.8158000000000003 
S  -0.44389999999999996  -0.6539000000000001  -2.1478 
12
Ligand ID: unq_CSD-PAHNUJ-01-d  ===  Stoichiometry: C3H6N2  ===  Charge: 0  ===  Denticity: 1
Pt  0.0  0.0  0.0 
N  0.9042000000000003  -1.3981000000000001  -1.1390999999999998 
N  1.8306000000000004  -3.5551000000000004  -1.8407 
C  1.3578999999999999  -2.4024  -1.4728999999999999 
C  3.2577  -3.7314  -2.1509 
H  3.7390999999999996  -2.8993  -1.9594999999999998 
H  3.3598999999999997  -3.958  -3.0995 
H  3.6239999999999997  -4.4551  -1.6012 
C  0.923  -4.6924  -2.0255 
H  0.0011999999999998678  -4.4058  -1.8567 
H  1.1630000000000003  -5.4072000000000005  -1.3994 
H  0.9983000000000004  -5.0246  -2.9449 
5
Ligand ID: unq_CSD-OZOJUJ-01-b  ===  Stoichiometry: C1H3  ===  Charge: -1  ===  Denticity: 1
Pd  0.0  0.0  0.0 
C  1.8861  -0.7906  0.12899999999999956 
H  1.8658  -1.5925  0.6929999999999996 
H  2.4915000000000003  -0.12849999999999984  0.5234999999999994 
H  2.2013999999999996  -1.0302  -0.7666000000000004 
15
Ligand ID: unq_CSD-SIRPIV-01-a  ===  Stoichiometry: C3H8N2S1  ===  Charge: 0  ===  Denticity: 1
Pd  0.0  0.0  0.0 
C  2.9846  1.0989000000000004  0.7643000000000004 
C  4.0848  1.9191000000000003  -1.2889 
H  4.1759  2.832600000000001  -1.0075000000000003 
H  3.8859000000000004  1.8919000000000015  -2.2276 
H  4.906  1.449300000000001  -1.1212999999999997 
C  4.0805  1.4420000000000002  2.9436 
H  3.274  1.7628000000000004  3.3559 
H  4.8272  1.954600000000001  3.2607999999999997 
H  4.2077  0.5182000000000002  3.168000000000001 
N  3.0053  1.2891000000000012  -0.5470999999999995 
H  2.3233  1.0175  -0.9963999999999995 
N  3.9751000000000003  1.5812000000000008  1.4992 
H  4.6005  2.0076  1.0935000000000006 
S  1.718  0.20750000000000135  1.5243000000000002 
15
Ligand ID: unq_CSD-PAGMIT-01-a  ===  Stoichiometry: C4H3F6O1  ===  Charge: -1  ===  Denticity: 1
Re  0.0  0.0  0.0 
F  0.9252999999999998  1.6094  -3.9162 
F  1.7234999999999998  3.4725  -3.5042 
F  -0.1412  2.8602  -2.5927 
F  3.1511000000000005  0.5778999999999996  -3.1531 
F  3.9615  2.4970999999999997  -2.6685 
F  3.8851000000000004  0.9848999999999997  -1.1637 
O  1.1971999999999998  0.7497999999999996  -1.3498999999999999 
C  1.8362999999999998  1.9146999999999998  -1.7241 
C  1.9705000000000001  2.9478999999999997  -0.6296999999999997 
C  1.083  2.4707999999999997  -2.9537 
C  3.2465  1.4707999999999997  -2.1624999999999996 
H  2.4524999999999997  2.5759999999999996  0.1615000000000002 
H  2.4113999999999995  3.7339  -0.8768999999999998 
H  1.0904999999999998  3.1899999999999995  -0.25059999999999993 
15
Ligand ID: unq_CSD-PITHUW-01-c  ===  Stoichiometry: C4H6F3O1  ===  Charge: -1  ===  Denticity: 1
Mo  0.0  0.0  0.0 
O  0.7403000000000004  1.6918000000000006  0.45079999999999965 
F  3.2573999999999996  2.736699999999999  0.3170999999999995 
F  3.1206000000000005  1.0602  1.6451999999999996 
F  3.3401000000000005  3.0433000000000003  2.4384 
C  1.2282000000000002  2.4795999999999996  1.5227999999999997 
C  2.7409999999999997  2.327399999999999  1.4781999999999997 
C  0.8517999999999999  3.9268  1.2677 
H  1.2175000000000002  4.4481  1.9554999999999993 
H  1.1580000000000004  4.2239  0.42890000000000006 
H  -0.08859999999999957  3.9602000000000004  1.2548999999999997 
C  0.7065000000000001  2.0061  2.8672999999999997 
H  0.9720000000000004  1.0978999999999992  3.0323999999999995 
H  1.0307000000000004  2.5496  3.5776 
H  -0.21910000000000007  2.1113999999999997  2.8359 
11
Ligand ID: unq_CSD-PABGEF-01-a  ===  Stoichiometry: C3H6O1  ===  Charge: 0  ===  Denticity: 1
Cu  0.0  0.0  0.0 
O  1.8813000000000004  -1.5545000000000009  0.5510999999999999 
C  2.5253000000000005  -2.181800000000001  1.3240999999999996 
C  1.9854000000000003  -2.5284000000000004  2.6430999999999996 
H  1.0510000000000002  -2.3116000000000003  2.6719999999999997 
H  2.4512  -2.0326000000000004  3.3187000000000006 
H  2.101  -3.4686000000000003  2.7979000000000003 
C  3.8842  -2.667700000000001  0.9666999999999994 
H  4.0133  -2.586400000000001  0.01869999999999994 
H  3.9724000000000004  -3.5889000000000006  1.2253999999999996 
H  4.5434  -2.1420000000000012  1.4261999999999997 
10
Ligand ID: unq_CSD-POMBEB-01-b  ===  Stoichiometry: C4H3O2  ===  Charge: -1  ===  Denticity: 1
Ru  0.0  0.0  0.0 
C  -0.7228999999999992  1.896700000000001  -0.3216000000000001 
C  -1.1529999999999987  3.0709  -0.5020000000000007 
O  -2.389199999999999  4.727600000000001  0.3035999999999994 
O  -1.0013999999999985  5.238100000000001  -1.1270000000000007 
C  -1.6042999999999985  4.318200000000001  -0.6870000000000003 
C  -2.7360999999999986  6.209100000000001  0.26759999999999984 
H  -2.2273999999999994  6.647400000000001  -0.44510000000000005 
H  -2.51  6.618400000000001  1.1296 
H  -3.695199999999999  6.3155  0.09779999999999944 
15
Ligand ID: unq_CSD-PAFLIT-01-a  ===  Stoichiometry: C3H9N1Si1  ===  Charge: -2  ===  Denticity: 1
U  0.0  0.0  0.0 
Si  3.423  -1.1266999999999998  -0.6210000000000004 
N  1.8033  -0.6300999999999999  -0.3091000000000008 
C  3.4996  -2.8882000000000003  -1.213 
H  3.0368000000000004  -2.9633000000000003  -2.0739 
H  3.0666  -3.4736000000000002  -0.5553000000000008 
H  4.435700000000001  -3.1559  -1.3212000000000002 
C  4.4527  -1.0214  0.9456999999999995 
H  4.1097  -1.6603999999999999  1.6056999999999988 
H  4.398000000000001  -0.11359999999999992  1.3121 
H  5.385800000000001  -1.2340000000000002  0.7382 
C  4.1969  -0.03259999999999996  -1.9282000000000004 
H  3.5887000000000002  0.04360000000000008  -2.6919000000000004 
H  5.0455000000000005  -0.42490000000000006  -2.224 
H  4.3627  0.8573999999999999  -1.5529000000000002 
9
Ligand ID: unq_CSD-PAHNAR-01-a  ===  Stoichiometry: C2H4O2  ===  Charge: 0  ===  Denticity: 1
Cu  0.0  0.0  0.0 
O  -1.8931999999999998  -0.009100000000000108  -1.6000999999999994 
O  -2.573  1.8983000000000008  -2.5168 
H  -3.0410999999999997  1.929999999999998  -1.8449 
C  -1.8725999999999998  0.7904  -2.5085999999999995 
C  -1.0181999999999998  0.6379000000000001  -3.7193999999999994 
H  -0.3443999999999998  -0.02490000000000059  -3.5547999999999997 
H  -0.5982999999999998  1.4779999999999998  -3.9211999999999994 
H  -1.5615999999999999  0.3658000000000001  -4.462299999999999 
16
Ligand ID: unq_CSD-PALTOM-01-b  ===  Stoichiometry: C5H9N1  ===  Charge: 0  ===  Denticity: 1
Ti  0.0  0.0  0.0 
N  -1.5557  -0.8734000000000002  1.2818000000000005 
C  -2.425  -1.3948999999999998  1.8045000000000009 
C  -3.5398  -2.0995999999999997  2.4665 
C  -2.9299  -3.0886000000000005  3.464600000000001 
C  -4.4253  -1.0610999999999997  3.172699999999999 
C  -4.34  -2.8226000000000004  1.3760000000000012 
H  -3.6496  -3.5387000000000004  3.8545000000000016 
H  -2.4455999999999998  -2.6224  4.141400000000001 
H  -2.3075  -3.7362  3.0515000000000008 
H  -5.1434  -1.5817000000000005  3.6027000000000022 
H  -3.9428  -0.5978000000000003  3.8523999999999994 
H  -4.7451  -0.3612000000000002  2.564399999999999 
H  -5.0877  -3.2984999999999998  1.7861000000000011 
H  -3.799  -3.4568000000000003  0.9130000000000003 
H  -4.689299999999999  -2.199  0.7643000000000022 
12
Ligand ID: unq_CSD-PECBAB-01-a  ===  Stoichiometry: C3H5O1S2  ===  Charge: -1  ===  Denticity: 1
Ru  0.0  0.0  0.0 
S  -1.4890000000000003  -1.7834000000000003  0.5670000000000002 
S  -3.5431000000000004  -2.7673  2.4019999999999992 
O  -2.2054000000000005  -0.4862000000000002  2.6571 
C  -2.4281000000000006  -1.6057000000000001  1.9724000000000004 
C  -2.9313000000000002  -0.22940000000000005  3.8980999999999995 
H  -3.8571000000000004  -0.5715000000000003  3.8169000000000004 
H  -2.9769000000000005  0.7470999999999997  4.0573999999999995 
C  -2.2488  -0.8970000000000002  5.0578 
H  -2.7495000000000003  -0.7157  5.8805 
H  -1.3378000000000005  -0.5493000000000001  5.146699999999999 
H  -2.2139  -1.8642000000000003  4.9046 
13
Ligand ID: unq_CSD-PEPBET-01-b  ===  Stoichiometry: C3H7N1O1  ===  Charge: 0  ===  Denticity: 1
Pt  0.0  0.0  0.0 
N  1.0138000000000003  1.4037000000000006  -1.0208 
H  0.6058999999999997  2.117800000000001  -1.1961 
C  2.1691999999999996  1.2805999999999997  -1.5333 
C  2.8833999999999995  2.3728999999999996  -2.2376 
H  2.3104999999999998  3.1400000000000006  -2.3015 
H  3.1268999999999996  2.0801  -3.1186000000000003 
H  3.6752999999999996  2.6058000000000003  -1.7473 
C  4.0853  -0.12340000000000018  -1.7636000000000003 
H  4.1823  0.054700000000000415  -2.7026000000000003 
H  4.3367  -1.0326000000000004  -1.5824000000000003 
H  4.651400000000001  0.4707000000000008  -1.2659000000000002 
O  2.7186999999999997  0.08120000000000083  -1.3773 
9
Ligand ID: unq_CSD-PAXDOI-01-b  ===  Stoichiometry: C2H5O1  ===  Charge: -1  ===  Denticity: 1
Ru  0.0  0.0  0.0 
O  -1.5547000000000004  1.3016000000000005  2.2171999999999996 
C  -0.23970000000000002  1.2536000000000005  1.65 
H  0.4001000000000001  0.9944000000000006  2.3242 
H  0.04750000000000032  2.1571  1.3444999999999996 
C  -1.6653000000000002  2.2723999999999993  3.2395 
H  -0.9466999999999999  2.1424000000000003  3.8917999999999995 
H  -2.533  2.1784999999999997  3.6855999999999995 
H  -1.5937000000000001  3.1682000000000006  2.8489 
15
Ligand ID: unq_CSD-OZOYEI-01-c  ===  Stoichiometry: C4H9N1  ===  Charge: -2  ===  Denticity: 1
U  0.0  0.0  0.0 
N  -0.6103000000000001  -0.07249999999999979  1.8309000000000002 
C  -0.9864000000000002  -0.15680000000000005  3.1536999999999997 
C  -0.7770000000000001  1.181  3.8555 
H  0.10550000000000015  1.5069  3.6679000000000004 
H  -0.8809999999999998  1.0644999999999998  4.8031 
H  -1.4255999999999998  1.814  3.5383000000000004 
C  0.015499999999999847  -1.1622999999999997  3.9135999999999997 
H  -0.008500000000000174  -2.0218  3.4857000000000005 
H  -0.25729999999999986  -1.2543  4.83 
H  0.9081000000000001  -0.8127  3.8785 
C  -2.3588  -0.6414  3.3791 
H  -2.9763  -0.09689999999999976  2.8864 
H  -2.5656999999999996  -0.5920999999999998  4.3158 
H  -2.4288  -1.553  3.0848000000000004 
16
Ligand ID: unq_CSD-PECFAE-01-e  ===  Stoichiometry: C7H7O1  ===  Charge: -1  ===  Denticity: 1
W  0.0  0.0  0.0 
O  -1.0200000000000005  0.4483999999999999  -1.4727000000000001 
C  -1.5945  1.0507  -2.5647 
C  -1.4192999999999998  2.3726  -2.8089 
C  -2.0511  2.9304  -3.9129 
C  -2.8210000000000006  2.1830000000000003  -4.7895 
C  -2.9890000000000003  0.8668  -4.4953 
C  -2.365  0.2847999999999997  -3.4034 
C  -3.4832  2.8119  -5.9937000000000005 
H  -0.8597999999999999  2.9197  -2.2325999999999997 
H  -1.9548000000000005  3.8764999999999996  -4.0828 
H  -3.5616000000000003  0.3222999999999998  -5.0837 
H  -2.4745  -0.6779000000000002  -3.2183 
H  -2.9822  2.6352999999999995  -6.797499999999999 
H  -4.3669  2.4819  -6.115 
H  -3.5373  3.7711  -5.902699999999999 
15
Ligand ID: unq_CSD-PAPVUY-01-a  ===  Stoichiometry: C4H9O1  ===  Charge: -1  ===  Denticity: 1
Zr  0.0  0.0  0.0 
C  2.6166  -0.8199000000000001  1.8625999999999996 
C  3.1853  -2.0363  1.354 
H  2.468  -2.6745  1.1587999999999994 
H  3.7899  -2.4188  2.0226999999999995 
H  3.6841  -1.8431000000000002  0.5324999999999998 
C  1.8388  -1.064  3.2375999999999996 
H  1.4506000000000001  -0.22020000000000017  3.5462 
H  2.4649  -1.4019000000000001  3.9108 
H  1.1247  -1.7200000000000002  3.0968999999999998 
C  3.6711  0.27029999999999976  2.1891 
H  4.1361  0.5315999999999996  1.3675999999999995 
H  4.3195  -0.08570000000000011  2.8320999999999996 
H  3.2235  1.0524  2.5748999999999995 
O  1.6643  -0.32040000000000024  0.9543999999999997 
16
Ligand ID: unq_CSD-SISKEL-01-c  ===  Stoichiometry: C6H7N1O1  ===  Charge: 0  ===  Denticity: 1
Co  0.0  0.0  0.0 
O  -0.6284000000000001  -1.7165999999999997  -0.9977 
N  -2.127  -2.5233  0.5038999999999998 
H  -2.2216  -1.7237  0.8058000000000005 
C  -1.2770000000000001  -2.6984  -0.5331999999999999 
C  -1.2089999999999996  -4.0123  -1.0785 
H  -0.7020999999999997  -4.188  -1.8378999999999999 
C  -1.9221999999999997  -5.0259  -0.4452999999999996 
H  -1.8434  -5.8988  -0.7564000000000002 
C  -2.7476  -4.7669  0.6412000000000004 
H  -3.2289  -5.4544  1.0411000000000001 
C  -2.8428999999999998  -3.5065999999999997  1.1078000000000001 
C  -3.7249  -3.0753999999999997  2.2398 
H  -4.188  -3.8383  2.5933 
H  -3.1881999999999997  -2.6784  2.9295 
H  -4.3634  -2.4337  1.9207 
10
Ligand ID: unq_CSD-SISJAI-01-a  ===  Stoichiometry: C2H3N4  ===  Charge: -1  ===  Denticity: 1
Cu  0.0  0.0  0.0 
N  1.2201999999999997  1.4101  0.7674000000000003 
N  0.7944999999999998  2.4454000000000002  1.4655000000000005 
N  1.8671000000000002  3.1306000000000003  1.8995999999999995 
C  2.9242000000000004  2.4534000000000002  1.4311000000000007 
N  2.5658999999999996  1.3803  0.7250999999999994 
C  4.338099999999999  2.8432000000000004  1.7114999999999991 
H  4.9293  2.1661  1.3742999999999999 
H  4.463199999999999  2.9352  2.6593 
H  4.5306999999999995  3.6795999999999998  1.2815999999999992 
15
Ligand ID: unq_CSD-PAFZOO-01-c  ===  Stoichiometry: C4H6N2S2  ===  Charge: 0  ===  Denticity: 1
Co  0.0  0.0  0.0 
S  0.8084999999999996  3.1615  6.120199999999999 
S  2.0275999999999996  0.8128000000000011  4.8078 
N  0.3782999999999994  1.1126000000000005  1.5924 
N  0.3152999999999997  2.470600000000001  3.6342000000000003 
C  0.40219999999999967  1.700000000000001  2.5782000000000003 
C  0.9765999999999995  2.1806  4.7318999999999996 
C  -0.4107000000000003  4.348000000000001  5.5541 
H  -0.5797000000000003  5.005700000000001  6.2600999999999996 
H  -1.2451000000000003  3.880700000000001  5.337 
H  -0.07540000000000013  4.805  4.7545 
C  2.5965999999999996  0.811300000000001  6.5138 
H  3.1815999999999995  0.039400000000000546  6.662099999999999 
H  1.8239999999999998  0.7553999999999998  7.115599999999999 
H  3.0919  1.636800000000001  6.693199999999999 
15
Ligand ID: unq_CSD-PAKHEP-01-b  ===  Stoichiometry: C3H9O1Si1  ===  Charge: -1  ===  Denticity: 1
Ti  0.0  0.0  0.0 
Si  -3.3185000000000002  -0.031500000000001194  0.28710000000000013 
O  -1.747399999999999  0.2800999999999991  -0.1459999999999999 
C  -3.2823  -1.4448000000000008  1.475 
H  -2.8717999999999995  -2.2058  1.0545 
H  -4.1795  -1.6683000000000003  1.7337000000000002 
H  -2.7768999999999995  -1.1974  2.2525 
C  -4.0446  1.4855999999999998  1.0500000000000003 
H  -3.5141999999999998  1.749699999999999  1.8047000000000004 
H  -4.9418999999999995  1.3000999999999987  1.3389000000000002 
H  -4.0577  2.193999999999999  0.40260000000000007 
C  -4.2942  -0.464500000000001  -1.2198999999999998 
H  -4.2249  0.24770000000000003  -1.8600999999999999 
H  -5.2141  -0.5901000000000014  -0.9797999999999998 
H  -3.9486  -1.2736  -1.6029999999999998 
16
Ligand ID: unq_CSD-PICVUT-01-e  ===  Stoichiometry: C8H7  ===  Charge: 1  ===  Denticity: 1
Ru  0.0  0.0  0.0 
C  -1.3161  0.04480000000000006  -1.0267999999999997 
C  -2.34  0.3359000000000001  -1.9601999999999986 
C  -2.0741  0.28380000000000005  -3.3369999999999997 
H  -1.2263  -0.01100000000000001  -3.648199999999999 
C  -3.0445  0.6631  -4.2332 
H  -2.8613999999999997  0.6217000000000001  -5.1647 
C  -4.3067  1.1124  -3.7952999999999992 
C  -4.5415  1.1609  -2.4315999999999995 
H  -5.3824000000000005  1.4755000000000003  -2.122299999999999 
C  -3.5953  0.7673000000000001  -1.5055999999999994 
H  -3.7921  0.7871000000000001  -0.575899999999999 
C  -5.3686  1.5258000000000003  -4.7791 
H  -6.245799999999999  1.5006  -4.3431 
H  -5.3652  0.9111  -5.5428999999999995 
H  -5.1873000000000005  2.4371  -5.0939 
13
Ligand ID: unq_CSD-PELGIX-01-a  ===  Stoichiometry: C4H5N2S1  ===  Charge: -1  ===  Denticity: 1
Ru  0.0  0.0  0.0 
S  -0.15249999999999986  -0.7476999999999999  2.2838000000000003 
N  1.8812000000000002  0.9543000000000001  3.16 
C  0.8048000000000006  0.21920000000000006  3.3830999999999998 
N  0.5074000000000001  0.18230000000000013  4.7119 
C  1.451  0.9444999999999999  5.369300000000001 
H  1.5131000000000001  1.1018000000000001  6.3043 
C  2.2659  1.4178  4.406700000000001 
H  3.0047  1.9931000000000003  4.5618 
C  -0.5740999999999996  -0.5404999999999999  5.321300000000001 
H  -0.5631999999999997  -0.39049999999999985  6.289999999999999 
H  -0.47409999999999997  -1.4969  5.1379 
H  -1.4269999999999996  -0.2245999999999999  4.952 
8
Ligand ID: unq_CSD-SISBEC-01-c  ===  Stoichiometry: C2H3N1O1  ===  Charge: -2  ===  Denticity: 1
Mo  0.0  0.0  0.0 
O  -0.9391999999999999  -3.7513  0.8418999999999999 
N  -0.6037999999999999  -1.6362  0.13279999999999959 
C  -1.21  -2.8768000000000002  0.08429999999999982 
C  -2.2014  -3.0387  -1.0149000000000004 
H  -1.7590999999999999  -3.3396  -1.8003000000000005 
H  -2.6127000000000002  -2.1994000000000002  -1.1848000000000005 
H  -2.8640999999999996  -3.6710000000000003  -0.7635000000000005 
14
Ligand ID: unq_CSD-SODYOZ-01-a  ===  Stoichiometry: C5H7N1  ===  Charge: 0  ===  Denticity: 1
Mn  0.0  0.0  0.0 
N  0.9848  -0.08530000000000015  -2.8969000000000005 
C  0.5948  -0.07529999999999948  -1.8336000000000006 
C  1.5061  -0.07779999999999987  -4.229100000000001 
C  0.4052  -0.31099999999999994  -5.2439 
C  -0.1382  -1.6724999999999999  -5.2884 
C  0.0024000000000000132  0.6795  -5.9636000000000005 
H  2.1782  -0.7572999999999999  -4.3180000000000005 
H  1.9126  0.7747999999999999  -4.3928 
H  -0.8356999999999999  -1.7252  -5.9474 
H  0.5608  -2.2919  -5.5148 
H  -0.4939  -1.8956999999999997  -4.4272 
H  0.4647  1.5220000000000002  -5.921100000000001 
H  -0.7279  0.5590999999999999  -6.281000000000001 
16
Ligand ID: unq_CSD-PALJAP-01-b  ===  Stoichiometry: C5H8N2  ===  Charge: 0  ===  Denticity: 1
Pd  0.0  0.0  0.0 
N  1.934  -1.9549  1.3452000000000002 
N  2.6181  -1.4715000000000003  -0.6182 
C  1.6281  -1.1958000000000002  0.2622 
C  3.0873999999999997  -2.7006  1.1402 
H  3.4894999999999996  -3.3079  1.7499000000000002 
C  3.5215999999999994  -2.3919  -0.09499999999999997 
H  4.2949  -2.7354000000000003  -0.5265 
C  1.145  -1.9655  2.5718 
H  0.42600000000000005  -1.3019000000000003  2.5032 
H  1.7207999999999999  -1.7449000000000001  3.3333 
H  0.7563  -2.8561  2.7021 
C  2.7675  -0.8361000000000001  -1.9262 
H  1.9688999999999999  -0.3027000000000002  -2.1237 
H  2.8783000000000003  -1.5256  -2.6135 
H  3.5550999999999995  -0.25260000000000016  -1.9178 
16
Ligand ID: unq_CSD-PAJLER-01-a  ===  Stoichiometry: C5H9N1  ===  Charge: 0  ===  Denticity: 1
Ir  0.0  0.0  0.0 
N  -2.1637  0.0  2.3502 
C  -1.3736  0.0  1.5359999999999996 
C  -3.1532999999999998  0.0  3.4241 
C  -4.504099999999999  0.0  2.7786 
C  -2.9446  1.2508  4.2216 
H  -5.1884  0.0  3.4408000000000003 
H  -4.606199999999999  0.7752999999999997  2.2333 
H  -3.6441999999999997  1.3477999999999994  4.8504 
H  -2.9343  2.0003  3.6337 
H  -2.1129  1.2005  4.6779 
C  -2.9446  -1.2508000000000001  4.2216 
H  -4.606199999999999  -0.7753000000000001  2.2333 
H  -3.6441999999999997  -1.3478  4.8504 
H  -2.9343  -2.0003  3.6337 
H  -2.1129  -1.2005000000000003  4.6779 
16
Ligand ID: unq_CSD-PIYPAQ-01-c  ===  Stoichiometry: C6H8N1  ===  Charge: -1  ===  Denticity: 1
Mo  0.0  0.0  0.0 
N  -1.7250000000000005  1.0226  -0.2716000000000012 
C  -2.4253000000000005  2.0164  0.4169999999999998 
C  -3.5708  2.2935999999999996  -0.2654000000000014 
C  -3.6184000000000003  1.4560000000000002  -1.4184 
C  -2.4989000000000003  0.6841999999999999  -1.3993000000000002 
C  -2.0603000000000002  -0.3568  -2.3680000000000003 
H  -2.6351000000000004  -0.36230000000000007  -3.1316000000000006 
H  -2.0979000000000005  -1.2286000000000001  -1.9848000000000017 
H  -1.1534000000000004  -0.20000000000000007  -2.687000000000001 
H  -4.2862  1.4262  -2.059800000000001 
H  -4.2079  2.9290000000000003  -0.00020000000000131024 
C  -1.9358000000000004  2.6174  1.6866999999999983 
H  -2.5289  3.3113  1.9518999999999984 
H  -1.9146000000000005  1.9621000000000002  2.3920999999999992 
H  -1.0538000000000003  2.9789000000000003  1.5940999999999992 
7
Ligand ID: unq_CSD-PAFKOY-01-a  ===  Stoichiometry: C2H3N1  ===  Charge: 0  ===  Denticity: 1
U  0.0  0.0  0.0 
N  -0.5288999999999997  -3.7537000000000003  0.2981999999999978 
C  -0.28359999999999985  -2.658  0.10389999999999944 
C  -0.8347  -5.1237  0.6097999999999999 
H  -0.15510000000000002  -5.7076  0.21369999999999933 
H  -1.7143  -5.3524  0.24540000000000006 
H  -0.8419999999999999  -5.2432  1.5829999999999984 
11
Ligand ID: unq_CSD-PEZFUX-01-a  ===  Stoichiometry: C2H3N4S1  ===  Charge: -1  ===  Denticity: 1
Co  0.0  0.0  0.0 
S  -2.1298000000000012  0.7098999999999993  -0.3043 
N  -3.0015  0.5810999999999993  -2.8766 
N  -3.0698000000000008  1.3413999999999993  -3.9739999999999998 
N  -2.5191999999999997  2.4551  -3.678 
N  -2.0502000000000002  2.4578999999999995  -2.4135 
C  -2.3704  1.2695999999999996  -1.9181 
C  -3.5282  -0.7509000000000006  -2.8585 
H  -4.445400000000001  -0.7285000000000004  -2.5745 
H  -3.017900000000001  -1.2891000000000004  -2.2483 
H  -3.4747000000000003  -1.1277000000000004  -3.7404 
11
Ligand ID: unq_CSD-PAJHAM-01-a  ===  Stoichiometry: C2H6O1S1  ===  Charge: 0  ===  Denticity: 1
Mn  0.0  0.0  0.0 
O  0.6668  2.0392  0.2744 
S  -0.043  3.0964  1.1108 
C  0.7842  4.6161  0.716 
H  1.7457  4.5158  0.8769 
H  0.4321  5.3359  1.2808 
H  0.6314  4.8359  -0.2264 
C  0.5856  2.8967  2.7653 
H  0.3121  2.0231  3.1155 
H  0.2263  3.6052  3.3395 
H  1.564  2.9518  2.7522 
16
Ligand ID: unq_CSD-PIWYIF-01-a  ===  Stoichiometry: C7H7N1  ===  Charge: -2  ===  Denticity: 1
Re  0.0  0.0  0.0 
N  1.4105999999999996  0.9727999999999994  0.34440000000000026 
C  2.3206999999999995  1.7857000000000003  1.008700000000001 
C  1.8583999999999996  2.8765  1.7393 
H  0.9531999999999998  3.0878999999999994  1.7492999999999999 
C  2.7619000000000007  3.639099999999999  2.4499000000000013 
H  2.4584  4.3689  2.937800000000001 
C  4.1081  3.34  2.4484000000000012 
C  4.545  2.275499999999999  1.7022000000000013 
H  5.451700000000001  2.0664  1.6950000000000003 
C  3.6701999999999995  1.5092999999999996  0.964500000000001 
H  3.9877000000000002  0.8095999999999997  0.4408000000000012 
C  5.0863  4.1715  3.273200000000001 
H  5.470599999999999  4.854199999999999  2.7195 
H  5.7829999999999995  3.6029  3.6099000000000014 
H  4.621  4.5778  4.008000000000001 
7
Ligand ID: unq_CSD-PEXMIO-01-b  ===  Stoichiometry: C3H3  ===  Charge: -1  ===  Denticity: 1
Fe  0.0  0.0  0.0 
C  -1.297  1.4719999999999995  0.0873999999999997 
C  -2.1  2.3180999999999994  0.2088000000000001 
C  -3.1288  3.3583999999999996  0.31069999999999975 
H  -3.2518000000000002  3.7726000000000006  -0.5770000000000004 
H  -2.8505  4.040100000000001  0.9554999999999998 
H  -3.9766  2.9521999999999995  0.601 
16
Ligand ID: unq_CSD-PAHWOL-01-a  ===  Stoichiometry: C2H6N1O4S2  ===  Charge: -1  ===  Denticity: 1
Cu  0.0  0.0  0.0 
C  0.23580000000000023  -2.6444  -2.8681 
H  0.9878999999999998  -3.2503  -2.6982999999999997 
H  0.5741000000000005  -1.7355  -3.0081999999999987 
H  -0.2474999999999996  -2.9403  -3.6685 
C  0.2998000000000003  -4.2835  1.360100000000001 
H  0.9472000000000005  -4.7442  1.9347999999999992 
H  -0.0519999999999996  -4.9112  0.6951 
H  -0.4365999999999999  -3.9409  1.9079000000000015 
N  -0.04889999999999972  -2.0937  -0.21649999999999991 
O  -1.8731999999999998  -1.6712000000000002  -1.7400000000000002 
O  -1.2961999999999998  -4.0181000000000004  -1.2899999999999991 
O  1.609  -2.0535  1.5528000000000013 
O  2.0578000000000003  -3.5132000000000003  -0.3722999999999992 
S  -0.855  -2.6599000000000004  -1.4847000000000001 
S  1.0925000000000002  -2.9428  0.539200000000001 
14
Ligand ID: unq_CSD-POWNIB-01-b  ===  Stoichiometry: C4H6N2S1  ===  Charge: 0  ===  Denticity: 1
Cu  0.0  0.0  0.0 
S  2.0957  0.05370000000000008  1.1798000000000002 
N  2.3149999999999995  -2.6135  0.5899999999999999 
N  3.9334999999999996  -1.8707000000000003  1.8011 
C  2.7794999999999996  -1.4992999999999999  1.1799999999999997 
C  3.1565000000000003  -3.6753000000000005  0.8277000000000001 
C  4.1661  -3.2186000000000003  1.5790000000000006 
C  4.792199999999999  -0.9847999999999999  2.5731 
H  1.5487000000000002  -2.5995  0.22969999999999935 
H  3.0126  -4.4466  0.49210000000000065 
H  4.8781  -3.6550000000000002  1.8893000000000004 
H  5.343500000000001  -0.5189000000000004  2.0862 
H  4.2747  -0.31599999999999984  3.0023 
H  5.2363  -1.5034  3.1358999999999995 
