76

Pd  0.0  0.0  0.0 
C  2.6791629923553146  0.3230128261247054  0.07801707039834921 
C  3.639917763958935  2.308472604503093  0.13490113919222774 
H  4.28982381387686  3.0007420385814934  0.17995196516535047 
C  2.292257079549849  2.4729961354273096  0.035480329145679175 
H  1.8335085186381421  3.30401601854601  -0.002103200795297402 
C  5.211253625315379  0.35555097044447725  0.16745574011296444 
C  5.8876179648513105  0.21546947941303984  -1.0458294885429313 
C  7.121577807652621  -0.4322638202558464  -1.0284911248988313 
H  7.608422892794838  -0.5443454430229581  -1.8361108268073318 
C  7.64148207777639  -0.9133020671900387  0.16230911649080912 
H  8.460009873521415  -1.3955698813267365  0.15596695277143485 
C  6.9819973710715555  -0.6987869941317778  1.3572264421051017 
H  7.370239094370122  -1.0122579337001767  2.165330274750545 
C  5.7568059146862645  -0.032478016258244535  1.402821849831349 
C  5.357480108572963  0.7997217680465032  -2.348363678715019 
H  4.37322645115046  0.9452969222419569  -2.2443594368232427 
C  6.010943721781272  2.153339325932393  -2.606945760839402 
H  5.808275097863179  2.7608059400148335  -1.8645978695819672 
H  5.662470957433168  2.5299678734768163  -3.44126040153689 
H  6.981044584705424  2.038980320361329  -2.680512353791923 
C  5.573842804249133  -0.12809680254086264  -3.5352970357292177 
H  5.234257361953542  -1.021121692446258  -3.318267306451479 
H  6.531870842469905  -0.18310820105017878  -3.736378994186141 
H  5.0964568599686455  0.22235558740826433  -4.3160057922975135 
C  5.100087502831668  0.33009475863166093  2.7160465908562306 
H  4.109579148716337  0.3241673002114185  2.5770329380572647 
C  5.423564090670706  -0.6535011167465513  3.8377065710012856 
H  5.332043841524764  -1.5701548264447442  3.5040937857354812 
H  4.804836007451252  -0.5130292736227448  4.5841091167666566 
H  6.343170132110139  -0.5082200517456209  4.144470080402771 
C  5.5046837767437555  1.7368607178178528  3.147864852641701 
H  5.341274081695736  2.363400085126358  2.413293996442662 
H  6.45608259536662  1.7458853725463723  3.379742716031126 
H  4.975485950926242  2.0035475869529593  3.929197045105941 
C  1.7287513814973083  -2.065630478076711  1.6714392257734147 
C  3.057043342925996  -2.748333567170053  1.9857921601424067 
H  3.080510854592675  -2.9961318110445765  2.9334132374876165 
H  3.7943692469684467  -2.1334776277730976  1.789540064570736 
H  3.1489105838805345  -3.553904504512242  1.4346451335251567 
C  1.4125403298176693  -0.9761302305021977  2.697674477229319 
H  1.4584303809211892  -1.3545599454755144  3.6011427688892526 
H  0.5107269941063641  -0.6265875732705485  2.5359354951974127 
H  2.0651768510959414  -0.24966525472277046  2.6147039399308127 
C  0.5733126063153244  -3.0889916946194615  1.7109372925882504 
H  0.448223056108902  -3.404892627920658  2.6310268777747297 
H  0.789742812976784  -3.8486771656104066  1.1309130854987974 
H  -0.2511759644516105  -2.662561037435199  1.3976351679735082 
C  2.290434276794026  -2.2553215086471967  -1.4508089543129261 
C  2.112758154203009  -1.3532975804162235  -2.6778638668412222 
H  2.353807820679731  -1.8512433903674843  -3.486671513098023 
H  2.6930811954582357  -0.5683035906752699  -2.5924412477121237 
H  1.179109363338052  -1.063511901309556  -2.7380772000914915 
C  1.3787935177705497  -3.4717965864940252  -1.589065279537778 
H  1.5112460832041468  -3.8815011422652637  -2.469542868628136 
H  0.44395754915597796  -3.1916491998261485  -1.4962960846096474 
H  1.5955667304031516  -4.123255203921236  -0.8898175880401278 
C  3.7473433617551906  -2.710304393825812  -1.3291764243210205 
H  4.041952847154704  -3.0916763298973455  -2.1824147775903127 
H  3.8201671760863394  -3.389601282708793  -0.6256906470517283 
H  4.311834030697575  -1.942458426987462  -1.1014470544824757 
N  1.7178607852500734  1.241392090558016  -4.942724370076391e-17 
N  3.887805712056408  0.9474726288704614  0.15910881392570267 
P  1.7178607852500734  -1.2413920905580156  5.551115123125783e-17 
Br  -1.654629867976521  1.654629867976521  0.0 
C  -1.352040782177733  -1.3199206589279684  -0.4819701001757076 
C  -1.6380700204479186  -1.599217458033982  -1.8139382277462257 
H  -1.1579680913617836  -1.159339363685303  -2.503515938957912 
C  -2.63068216563725  -2.52632649780156  -2.142289956238523 
H  -2.8368222554424674  -2.694399528648736  -3.0538898079700485 
C  -3.3101544432602585  -3.1961573187854975  -1.1619874135498987 
H  -3.9960123560788676  -3.811990145619169  -1.3868663427944008 
C  -2.9974710358883443  -2.9701089012107795  0.12423560353005347 
H  -3.438659168087169  -3.468581175155742  0.8017084178296768 
C  -2.0389854250767776  -2.015940632791841  0.4912562833419403 
H  -1.8619130127668426  -1.8492165108145995  1.4101568590026907 
