45

Ni  0.0  0.0  0.0 
P  1.433277970248618  -1.423311020121744  -1.3944625670477678e-14 
N  1.4332779702486187  1.423311020121744  1.3564704601237987e-14 
C  1.2314423812601318  2.724285202027265  0.11546697810601778 
H  0.34653249244810347  3.0538550032642977  0.010371379742977457 
C  2.2512753213953074  3.6405169964585697  0.3819702108977814 
H  2.054340743753256  4.5670022560803245  0.4360375377464206 
C  3.5198622511476305  3.208077388180009  0.5661434360242786 
H  4.223489476464719  3.8280457629940825  0.7173269735634553 
C  5.061558406631498  1.26183452851111  0.7770545911444752 
H  5.803523615777433  1.8320539032831662  0.9370299425321451 
C  5.236925032012146  -0.07924225865290081  0.7899982240369705 
H  6.0989436869592035  -0.4381083622514753  0.9616707559436992 
C  4.161722682992751  -0.941984507283114  0.5560642566622455 
H  4.296521458741279  -1.8820317148748564  0.5723598866183619 
C  2.912843141997625  -0.433675367698064  0.2990837307499959 
C  2.713909071535082  0.9554093734788063  0.25980947151076306 
C  3.782148051878782  1.8330979266758036  0.5255486189114531 
C  1.2303929905769964  -2.556106064357519  1.367457338558907 
C  0.9987878635227561  -2.0157502397155516  2.6482278089780404 
H  1.0290498049000423  -1.076050503613071  2.7844784635570705 
C  0.7266000386336313  -2.8689998688064438  3.703609184803015 
H  0.5760576701495821  -2.504534300377473  4.567158913956419 
C  0.6704311829125211  -4.214978662560274  3.530151419303836 
H  0.4684843096379179  -4.782463350433288  4.263107133794346 
C  0.911173982898627  -4.756195507726057  2.270419284775357 
H  0.8876702362192842  -5.697496531226458  2.1476438920896466 
C  1.187692497401851  -3.916293537531403  1.1904772670725048 
H  1.3461954810492969  -4.286317890996285  0.3299055431483691 
C  1.7933742593716264  -2.447151410169039  -1.4468767806098228 
H  2.553196198875344  -3.0348225995120233  -1.2510167707431918 
H  2.016748823565754  -1.8696527760828756  -2.2082851741147644 
H  1.0082616872794945  -2.989534332163055  -1.6679579988805324 
Br  -1.5839191898578664  1.5839191898578664  0.0 
C  -1.308147545195113  -1.308147545195113  0.0 
C  -2.5481111008682706  -1.081588847540519  0.5874691967409313 
H  -2.7399447190521347  -0.23895174706744582  0.9782000501948406 
C  -3.514692573752534  -2.090568128666735  0.6049610958635798 
H  -4.3504064840370384  -1.9365173000894942  1.0287619599160838 
C  -3.2692344052199704  -3.300825455744854  0.016423527177974795 
H  -3.920165040096455  -3.990528127682657  0.045080339651694334 
C  -2.0939695739763726  -3.5035118821402764  -0.6007549227026172 
H  -1.9425337635726068  -4.327915038834382  -1.0474288760065322 
C  -1.0854604411866036  -2.53050399443706  -0.5998012209931928 
H  -0.24896772463074335  -2.712575304189299  -1.0129111498427692 
