106

Pd  0.0  0.0  0.0 
C  0.2004  -2.03966  0.0 
C  -0.83266  -3.10322  -0.05191 
H  -1.88215  -2.83565  -9e-05 
C  -0.46779  -4.39559  -0.13817 
H  -1.22067  -5.17459  -0.16371 
C  0.96773  -4.76284  -0.19902 
H  1.26278  -5.80198  -0.29841 
C  1.90557  -3.80883  -0.13254 
H  2.95742  -4.07471  -0.18639 
C  1.50661  -2.38445  -0.00486 
C  2.55351  -1.32624  0.08826 
H  3.22143  -1.46956  -0.78448 
N  1.88609  -0.01789  0.0 
C  2.57771  1.22613  0.23248 
C  1.6054  2.34041  -0.01104 
N  0.31351  2.05755  0.0 
C  -0.70819  3.10833  0.10576 
H  -0.25915  4.09866  0.21634 
C  -1.4697  2.97853  1.4142 
C  -2.86974  3.11063  1.49465 
H  -3.47007  3.29386  0.61654 
C  -3.51685  3.04224  2.73083 
H  -4.59  3.16601  2.78077 
C  -2.78425  2.82494  3.89903 
H  -3.28946  2.76912  4.85387 
C  -1.39835  2.68873  3.83633 
H  -0.82876  2.52003  4.74109 
C  -0.74306  2.77879  2.60714 
H  0.3362  2.67886  2.58806 
C  3.4153  -1.46419  1.35072 
H  4.1954  -0.67625  1.37656 
H  3.9413  -2.4406  1.34924 
H  2.80662  -1.38657  2.26925 
C  3.98402  1.33968  -0.42988 
H  4.42928  0.36448  -0.70889 
H  4.66206  1.76764  0.33384 
H  4.02238  1.95251  -1.35472 
C  2.20967  3.74143  -0.05404 
H  1.56509  4.56937  -0.38517 
H  3.01702  3.78886  -0.80877 
H  2.64708  3.96483  0.93873 
C  -1.55319  3.19949  -1.16221 
H  -0.89056  3.2481  -2.05188 
H  -2.19033  4.10623  -1.14274 
H  -2.22716  2.34257  -1.25034 
N  0.49452  0.0  -1.88409 
N  -1.85452  0.0  -0.59591 
N  -2.01717  0.09736  -6.07473 
N  -3.99539  -0.1102  -5.01014 
H  -5.01512  -0.23444  -4.83709 
C  1.68318  0.05548  -2.61145 
H  2.64881  0.026  -2.17051 
C  1.74822  0.15892  -3.99133 
H  2.71685  0.20123  -4.47889 
C  0.59047  0.19289  -4.72363 
H  0.65427  0.2671  -5.803 
C  -0.61584  0.11382  -4.05253 
C  -1.83014  0.09188  -4.73684 
C  -3.01981  -0.02066  -4.08865 
C  -3.09081  -0.04915  -2.68473 
C  -4.29088  -0.10377  -1.98409 
H  -5.23957  -0.13796  -2.50131 
C  -4.26306  -0.08856  -0.59216 
H  -5.18872  -0.1154  -0.03415 
C  -3.03811  -0.02319  0.08265 
H  -3.05038  0.02317  1.14966 
C  -1.87074  -0.01697  -1.95481 
C  -0.65709  0.03849  -2.61271 
C  -3.34962  -0.04729  -6.20772 
C  -3.98838  -0.25344  -7.52658 
C  -3.34795  0.16044  -8.71024 
H  -2.4036  0.6904  -8.67412 
C  -3.92081  -0.10719  -9.95852 
H  -3.40864  0.21534  -10.85936 
C  -5.12006  -0.82361  -10.04229 
C  -5.68055  -1.14712  -11.28522 
H  -5.19988  -0.8379  -12.20751 
C  -6.86489  -1.89093  -11.35679 
H  -7.28792  -2.14797  -12.31814 
C  -7.49807  -2.31386  -10.18378 
H  -8.40826  -2.89534  -10.23985 
C  -6.95675  -1.98989  -8.93694 
H  -7.45752  -2.32926  -8.03791 
C  -5.76945  -1.24703  -8.85541 
C  -5.20789  -0.94069  -7.61154 
H  -5.69921  -1.2893  -6.71125 
C  -0.3393  -0.42594  4.70917 
C  0.94804  0.03722  4.99522 
H  1.72829  0.03052  4.24252 
C  1.23743  0.49696  6.26983 
H  2.2412  0.83761  6.49321 
C  0.23596  0.49124  7.25244 
C  0.5677  0.91423  8.63747 
H  -0.31975  0.82469  9.29767 
H  0.92654  1.96226  8.6337 
H  1.36308  0.24137  9.02233 
C  -1.06454  0.06599  6.93204 
H  -1.85561  0.06956  7.66748 
C  -1.34976  -0.39022  5.65577 
H  -2.34679  -0.72897  5.40288 
N  0.0  0.0  1.91 
H  1.00965  -0.09395  2.12052 
O  -2.16012  -1.25478  2.80779 
O  -0.05789  -2.43989  2.88722 
S  -0.67544  -1.05536  3.12483 
