56

Pd  0.0  0.0  0.0 
C  1.82755  2.28602  0.45381 
C  3.5799  3.7553  1.25149 
C  2.24717  3.5625  0.85073 
C  2.85009  -1.02539  -0.78665 
C  2.37756  -2.43691  -0.69783 
C  1.13947  -2.82443  -0.35151 
C  0.77975  -4.2801  -0.38986 
C  4.31165  -0.81411  -1.17834 
C  2.70615  1.21541  0.40618 
C  4.02884  1.41068  0.82221 
C  4.44869  2.67134  1.24623 
H  3.90902  4.73095  1.57701 
H  1.56044  4.39659  0.8582 
H  3.09464  -3.19806  -0.99488 
H  1.61061  -4.91657  -0.76124 
H  -0.08451  -4.41037  -1.07751 
H  0.48753  -4.61486  0.625 
H  4.54697  -1.44435  -2.05863 
H  4.99054  -1.11726  -0.35619 
H  4.47765  0.23911  -1.48729 
H  4.73717  0.6082  0.88814 
H  5.4716  2.80658  1.60447 
N  2.12237  -0.03137  0.0 
O  0.14067  -1.98276  0.0 
S  0.13696  2.01413  0.0 
C  -0.71399  -0.34858  -2.63782 
N  0.44853  0.0  -1.85887 
H  1.34028  -0.20523  -2.35225 
N  -1.86182  0.26942  -2.00462 
N  -1.80853  0.0  -0.62113 
H  -2.13991  -0.98513  -0.51024 
H  -2.4974  0.57596  -0.09976 
N  -0.56803  0.17262  -3.9941 
H  0.29466  -0.22925  -4.42839 
H  -1.38314  -0.1509  -4.56183 
H  -2.73324  -0.14864  -2.41064 
N  -1.30201  0.20047  2.60663 
C  -2.59634  -0.16286  2.13325 
H  -2.70159  -0.93782  1.40973 
C  -3.72625  0.44929  2.50871 
H  -3.74377  1.25994  3.22612 
H  -4.65897  0.15223  2.03123 
C  0.0  0.0  1.95 
N  0.97406  0.15359  3.03692 
C  2.40922  0.00753  3.04799 
H  2.76806  -0.42847  2.12675 
H  2.84774  1.00639  3.26571 
C  2.92094  -0.99037  4.06071 
H  2.62309  -0.71723  5.08884 
H  4.03177  -0.97648  3.99197 
H  2.5571  -2.00517  3.79697 
C  0.25251  0.47681  4.21395 
H  0.68008  0.62074  5.19465 
C  -1.08652  0.50514  3.95754 
H  -1.86919  0.66114  4.69263 
