58

Pd  0.0  0.0  0.0 
O  0.2925497701854889  -2.0223027061674794  9.003214840319629e-15 
O  4.446653087684408  -2.7966880335282367  0.0625426439546536 
N  0.29373687749674715  2.0377360178813726  -1.0890593982182395e-14 
N  1.8137133523177644  -0.015433311713893172  1.897787482718627e-15 
N  2.452386447053555  -1.2264259001286986  0.04248551359012488 
C  -0.5167414185695625  3.0858977138533326  0.043537118676301514 
C  -0.06128344739275571  4.395622451456219  -0.0317382305593865 
C  1.2786534512680667  4.61755054435195  -0.19806645784171914 
C  2.127527365486312  3.5484644642809355  -0.23823212923147302 
C  1.6251629872786226  2.26924164090985  -0.14126156836627923 
C  2.447401681011656  1.0794928444383198  -0.15356895731521397 
C  1.561630617484426  -2.2099437847216943  0.047814000648573676 
C  2.122534900075088  -3.5742888513743463  0.10367521144843163 
C  1.2948560619065146  -4.687445033759923  0.1312132662941189 
C  1.7946720693047036  -5.9620660157184195  0.19802031008213394 
C  3.1671814365970956  -6.143142610271569  0.23430093300500976 
C  4.017467764411973  -5.086298767017636  0.19078470950909965 
C  3.5201350262417934  -3.783844279082072  0.11735804949612862 
H  -1.509763839719523  2.8962628388795766  0.030630713787254914 
H  -0.6457893758787387  5.104467663747981  0.022447972258174752 
H  1.6390588419497023  5.481101869455891  -0.14599628135995033 
H  3.0245749788737974  3.6231628425065394  -0.3147957080812108 
H  3.446904540016752  1.1302650874781308  -0.22412981174132257 
H  0.3528262641608264  -4.7181915729001185  -0.03689732376527653 
H  1.1986185379798384  -6.708470953322804  0.1112089806662442 
H  3.502965965034555  -7.018125262832587  0.2481413874526791 
H  5.029077369614576  -5.194587852181836  0.3303780141341156 
H  4.022591215682354  -2.019203479439857  0.06615330429653911 
N  -1.9171334308595165  1.5334955527634975e-15  -0.08286656914048396 
C  -2.387721464909692  -0.0002526955091832527  -1.3617437518104696 
C  -1.3357886303705822  0.01461177846044658  -2.4173183910625378 
N  -0.08286656914056367  6.661338147750939e-16  -1.9171334308594363 
H  0.6704981340455122  -0.026285114344589244  -2.4956814122380417 
O  -1.6443538401378233  0.07429903008166175  -3.611065748469127 
C  -3.7119323897836862  0.06308156693339799  -1.6211707890391291 
H  -4.0309666552981644  0.1184941296060683  -2.5150931376386683 
C  -4.609372713702539  0.046452587518543406  -0.5416159353850121 
H  -5.545897315255454  0.066176513479191  -0.6954093924333629 
C  -4.127823178901956  -0.00039583311475122757  0.7281124572319055 
H  -4.72854299519128  -0.020435389033871827  1.4625259364900125 
C  -2.7854561601094128  -0.015313760563017871  0.9496224170502643 
H  -2.4562274491467604  -0.03690370322398551  1.84082563756384 
N  0.0  0.0  1.91 
C  -0.0003168143922801514  0.01681920935361597  3.0504284474816297 
C  0.0017882483490256895  0.00402149268429719  4.526049305682985 
C  1.3698128850263944  -0.5153341439184459  4.978907932820324 
C  -0.25210982668105286  1.433787347429519  5.028658804300635 
C  -1.1309067401290647  -0.9249530788333218  4.980194214880781 
H  1.3415562809508657  -0.5370975910695763  5.912346750683723 
H  2.061064691308478  0.07906871958594147  4.698188595813513 
H  1.5912185513782124  -1.411342808458723  4.624553401346467 
H  -0.23167813628049094  1.3706942385219891  6.012118908034266 
H  0.44096682929680875  2.0275357391035813  4.751976990075326 
H  -1.0783755856358042  1.819941061608659  4.667644753875194 
H  -1.154411981181432  -0.952227654876374  5.956115170258183 
H  -0.9997796087810722  -1.813061833620035  4.658747243988781 
H  -1.9588287932285786  -0.5978506975111182  4.675869641234766 
