100

Pd  0.0  0.0  0.0 
N  1.8575550688519058  0.01603086297936518  -2.4166982930632403e-15 
N  0.33928342450202476  2.0061512171195637  8.738424072244294e-17 
N  0.2031615066460698  -2.022182080098929  2.27380290110954e-15 
H  0.2592651163734603  -2.195299409153171  0.8916973395478345 
C  1.656198531171972  2.2771774057371905  0.04267583517498888 
C  2.1585172636416363  3.556490419464152  0.07468745679761578 
H  3.0749218913414733  3.711366726490737  0.08760944782567372 
C  1.2728701716657143  4.593080361906749  0.08498938387213824 
H  1.579331338560548  5.470750280792345  0.10892088338236447 
C  -0.06120793744914954  4.335586626238486  0.06094910783147733 
H  -0.6756714395298109  5.033237230843677  0.07137688347057672 
C  -0.4961990161549805  3.0154867765591664  0.018623367164896813 
H  -1.4104118725990016  2.843939992401702  0.0022617059504710505 
C  2.4911183570176494  1.0721898389681366  0.024212131813616734 
H  3.420949606468197  1.1015377474751171  0.031001668727141832 
C  2.514274929070406  -1.3595035474163915  0.04297640063790095 
H  3.338632779370637  -1.358846261084264  -0.46843990984022427 
H  2.7149668021974236  -1.6127790182848625  0.957384891366811 
C  1.5223358606729716  -2.3051947999857703  -0.5603631715771072 
H  1.4863002466344453  -2.1351609332828865  -1.524431622826774 
C  1.987733704040475  -3.7366979978435406  -0.3498235270636486 
H  2.17324198284821  -3.8876508132695493  0.589890746536978 
H  2.8030228186314377  -3.8949036032052575  -0.850441241554076 
C  0.8981297357618769  -4.6881209078546995  -0.8216242250468451 
H  0.8443006181569881  -4.644200450019934  -1.7893408723571327 
H  1.1508501072140715  -5.5939203346704565  -0.5825711091221412 
C  -0.4607114527504961  -4.40096398133109  -0.25014269957835056 
H  -0.4590333811803524  -4.565539219625846  0.7052296231398818 
H  -1.1207194758411856  -4.983007903495014  -0.6587012659160988 
C  -0.8110610479959137  -2.9533153414205087  -0.5210842919491286 
H  -0.9011755054270829  -2.821158311827234  -1.4780426160630722 
H  -1.6675766525614615  -2.7510987901412283  -0.11193828436207334 
C  -3.7324825697587474  0.19198490002455054  -1.713407793009954 
H  -3.99929136160117  0.29191210261127154  -2.5977977085894977 
C  -4.672569277161934  0.14037305725268767  -0.7115368580839161 
H  -5.578597071989743  0.2196474299807296  -0.9080838214998199 
C  -4.245841077877113  -0.033701981065547476  0.599472972149881 
H  -4.879222893831196  -0.1028562288657543  1.2771581831659593 
C  -2.9024736651652927  -0.10787928395573676  0.9213015324112654 
H  -2.645988771475283  -0.23027497375353717  1.8073267489981024 
C  -1.9268325455550208  -1.1102230246251565e-16  -0.07316745444497919 
C  -2.3912575088247916  0.09507615789182551  -1.401949478590554 
C  -1.321999494842613  0.06594119249933678  -2.3666023194232055 
C  0.8437351176280299  -0.15045068341308832  -2.9844118405426125 
C  2.221937738606625  -0.266223424366145  -2.876190086814572 
H  2.639230883440401  -0.2635417933545578  -2.0447320781756195 
C  2.959919158910481  -0.3861596918360241  -4.038594721626282 
H  3.884876837469717  -0.47522708524595675  -3.986127757682343 
C  2.342785912659055  -0.37583238941328306  -5.285705748438202 
H  2.8660974892675406  -0.4497122255075453  -6.050991605883811 
C  0.983405968496835  -0.2604063748269792  -5.414074874657296 
H  0.575757590197189  -0.25769249106161923  -6.250608008791628 
C  0.2335027509404472  -0.14571067251913256  -4.24338246408537 
N  -0.07316745444497919  1.6653345369377348e-16  -1.9268325455550208 
S  -1.491243485179711  0.01200562699076485  -4.086137909781276 
S  0.0  0.0  2.23 
Si  -0.05576057052289968  0.29209413293302344  4.293697428471788 
O  -1.3166197880038153  1.2668957623269883  4.6504849661244965 
C  -1.6759032934379832  1.950622144458077  5.876854872433711 
O  -0.16622919101702582  -1.128000589800175  5.094406340843471 
C  -0.9297905377133822  -2.3291627903176826  4.939508800904365 
O  1.235689565547363  1.0337072673010363  4.953832835018771 
C  2.5555718952558513  0.6036990575585114  5.3245139854396175 
C  -3.161197565878294  2.1884145399558506  5.785925719245972 
C  -1.344904280344298  1.1295214885742249  7.0960053415055615 
C  -0.9531595273457912  3.251971973885242  5.914444765021575 
C  -0.9781928520522933  -2.965273082406517  6.310692582264579 
C  -2.312948605527229  -2.0335533817864366  4.444062257845204 
C  -0.2056570767571438  -3.2441897345382995  3.98740347475929 
C  2.4846806659436993  -0.33232224585503467  6.533299232355965 
C  3.3184268051515184  1.850277374077676  5.6913684487248855 
C  3.2088370039810314  -0.116834937834283  4.16901153662976 
H  -3.462956189022946  2.6406568285708296  6.578197166255222 
H  -3.611065964055299  1.3434064531794125  5.711318161960681 
H  -3.357215689401139  2.725424444374835  5.015692853284971 
H  -1.5968364656014913  1.612107998896913  7.8870749996811895 
H  -0.40175946571324084  0.9501609539903857  7.116200817938402 
H  -1.8273770997065473  0.30114001818100117  7.05916612210825 
H  -1.1806248611380572  3.718078237502233  6.72112930865668 
H  -1.2009350264301606  3.785580371196006  5.155560195160698 
H  -0.006938739223962376  3.0881101341136583  5.89465038216233 
H  -1.4882524867481473  -3.776973416407504  6.263330183290105 
H  -1.392945185136533  -2.363124187939017  6.932056478136191 
H  -0.08585625691661147  -3.1630540536343688  6.6024612207469 
H  -2.802675716890629  -2.85348871308162  4.350312863769732 
H  -2.2580470124312497  -1.595198847701715  3.592396820291882 
H  -2.7629529345621133  -1.4614401728962836  5.071233422730257 
H  -0.7154992158553012  -4.049767694926013  3.87638238245072 
H  0.6566419709455893  -3.4580992431245967  4.348866632587759 
H  -0.09878775307714505  -2.813563416264664  3.137211013215275 
H  3.371288434805453  -0.6124155865199092  6.773509899706887 
H  1.958083738795604  -1.101675025179337  6.305055815661957 
H  2.081358373537519  0.12158233977815103  7.27658141671759 
H  4.211551895198589  1.6157041010768465  5.94751862561745 
H  2.881587493646042  2.2960999233280868  6.42030803504414 
H  3.3477294528771884  2.4354127737351843  4.9303652497145825 
H  4.090436581820781  -0.40226576667157987  4.4210859825818005 
H  3.2678473498667135  0.4809258453169485  3.4193798969527256 
H  2.681358123137781  -0.8811912774260477  3.9274866385545675 
