79

Pd  0.0  0.0  0.0 
S  -0.00482  -2.11357  0.0 
N  0.4522  2.13469  0.0 
N  1.95262  -0.02111  0.0 
N  2.54293  -1.25717  -0.00949 
N  2.33428  -3.60133  -0.09459 
H  1.70766  -4.40956  0.03465 
C  -0.15724  3.33179  -0.09643 
H  -1.22499  3.48532  -0.18117 
C  0.81852  4.32628  -0.04741 
H  0.6696  5.39922  -0.08593 
C  2.05061  3.69839  0.07411 
H  3.02802  4.15803  0.14935 
C  1.77074  2.35803  0.1104 
C  2.67672  1.1845  0.34785 
C  4.15011  1.20936  -0.08262 
H  4.66131  0.35148  0.40869 
H  4.63686  2.13601  0.27895 
H  4.30549  1.12663  -1.17607 
C  1.78531  -2.2956  -0.05309 
C  3.73637  -3.83252  -0.33758 
H  3.97389  -4.90043  -0.15331 
H  4.35111  -3.20008  0.33413 
H  3.96804  -3.58792  -1.39724 
O  -6.48172  -0.56197  2.48905 
O  -8.52998  -1.34953  2.76686 
N  0.49242  0.0  -1.88294 
N  -1.85242  0.0  -0.59706 
C  1.80021  0.00461  -2.59562 
H  2.78787  -0.09237  -2.13688 
C  1.77644  0.08316  -4.08701 
H  2.72157  0.08034  -4.62027 
C  0.63342  0.16125  -4.75593 
H  0.64401  0.22474  -5.83891 
C  -0.64488  0.14986  -4.03525 
H  -1.56417  0.20824  -4.61373 
C  -0.68075  0.0666  -2.69651 
C  -1.94512  0.04528  -1.99936 
H  -2.89253  0.09521  -2.52956 
C  -3.02808  -0.13695  0.20879 
C  -4.16274  -0.83442  -0.31387 
H  -4.12874  -1.2857  -1.29661 
C  -5.31444  -0.97557  0.4597 
C  -6.43048  -1.69666  -0.02394 
H  -6.42247  -2.1487  -1.00626 
C  -7.55974  -1.83067  0.78738 
H  -8.41945  -2.37606  0.43888 
C  -7.54405  -1.23048  2.05447 
C  -5.38771  -0.42099  1.7358 
C  -4.28682  0.29136  2.23905 
H  -4.33615  0.74093  3.22942 
C  -3.13269  0.40908  1.48062 
H  -2.33033  0.97168  1.89685 
N  0.0  0.0  1.91 
C  0.1154  1.36877  2.44291 
H  -0.65366  2.07592  2.08398 
C  0.19483  1.53051  3.89474 
H  0.21368  2.5536  4.26985 
C  0.21735  -0.88507  4.16314 
H  0.29517  -1.73457  4.83231 
C  0.08539  -1.10314  2.83645 
H  0.07139  -2.13445  2.52201 
C  0.2696  0.4958  4.71532 
C  0.4704  0.8424  6.16167 
H  1.538  1.10914  6.32812 
H  -0.11503  1.77315  6.3564 
C  -0.01884  -0.20855  7.14743 
H  0.60789  -1.12377  7.10495 
H  -1.06672  -0.45065  6.87318 
C  -0.01891  0.43107  8.53361 
H  -0.56824  1.39444  8.45268 
H  1.01417  0.68249  8.86974 
C  -0.7779  -0.36771  9.59079 
H  -1.04257  0.37265  10.37151 
H  -1.738  -0.78204  9.20134 
C  0.07312  -1.43362  10.27063 
H  0.01265  -2.40479  9.74164 
H  -0.29864  -1.55541  11.31143 
H  1.13315  -1.10781  10.34243 
