63

Fe  0.0  0.0  0.0 
O  -1.8102963086490866  -1.0482639457595857  -0.000985792592214367 
O  2.57010933348037  2.7759664676657465  -0.8778127341451846 
N  -0.8875335468779653  1.8342065032298107  0.0011061422552126748 
H  -1.1935208709374507  2.1224052030753056  0.7668625310122917 
N  1.6122843350668392  0.885664900645719  -0.001276141562909186 
N  1.0855455204602125  -1.6716074581159441  0.0011557918999108643 
C  -2.9647900599337698  -0.4643872633241093  -0.24451182395799675 
C  -4.1253399849633965  -1.2578632580108988  -0.0861318145832851 
H  -4.0330257443315745  -2.1593456972589915  0.19831670923759837 
C  -5.382422009393601  -0.76027168524032  -0.3318294958140186 
H  -6.141976593486651  -1.3196402026962417  -0.21617226317205124 
C  -5.552629424700877  0.5512978133093284  -0.7473905939074778 
H  -6.41885191154903  0.8929264004160608  -0.9331576570539276 
C  -4.427990964906258  1.35573910603429  -0.8857244339820787 
H  -4.542237542772066  2.2588607666171296  -1.154452094694644 
C  -3.142128786764282  0.8878744907097288  -0.6447881342031354 
C  -1.9997459031729061  1.8236353104923873  -0.9873489980465416 
H  -1.6343141065738527  1.5658965926787372  -1.870209290150657 
H  -2.358713544675167  2.7425273335178724  -1.0698754324444817 
C  0.22067629725894133  2.813285443270212  -0.369459075388614 
H  0.014009100705372562  3.1422966998294077  -1.2909941604103556 
C  1.5862787527286986  2.134634950158534  -0.44665636688415783 
C  2.8007827755365327  0.06359745770748276  -0.14756269686481005 
H  3.4295216501059502  0.2481762982067245  0.5951164661962919 
H  3.255036538828398  0.27997440029823073  -0.9994391416913205 
C  2.4076948860730476  -1.3903886951770685  -0.1334248619129782 
C  3.3350011651402154  -2.4165584861135696  -0.24597380669676838 
H  4.2588357800569545  -2.2176650650656278  -0.3484527867145691 
C  2.906737621257553  -3.7252688943200516  -0.2068337449558072 
H  3.536077647811853  -4.433842746791544  -0.27223746480673533 
C  1.5554126453830341  -4.005872217710269  -0.07260664456213352 
H  1.2431641248958625  -4.9023513690344585  -0.04451353696202741 
C  0.681518294366753  -2.946801428339997  0.01924664261074792 
H  -0.247401992604725  -3.1295059674472685  0.09859153433307759 
C  0.2715521982661361  4.045780194141499  0.5302368019896407 
H  1.0030178728107  4.625974659700993  0.17226311706685155 
C  0.6644649958353084  3.6949747011134155  1.9686892376188807 
H  -0.05633948591022237  3.178300467377179  2.3868689780279895 
H  0.8132835865721846  4.5192928813995765  2.4770277121619784 
H  1.486923424050433  3.162059462034088  1.962569448821067 
C  -1.0051859692125684  4.8830173748371335  0.4829003998878646 
H  -1.2424353135983266  5.06386344035124  -0.4497048430614769 
H  -0.8574528880815742  5.7302109398013945  0.9519486918820789 
H  -1.734601689358766  4.392828251045228  0.9162351897671529 
O  -0.5239574275124467  -1.6483682336233783  3.519709800099349 
C  -1.575138969688709e-16  7.724783534606628e-17  1.9099999999999997 
H  0.14119558270483673  -0.7778830575511185  1.3136046142033238 
H  0.8306182687313943  0.5394210908954975  1.898478353122468 
C  -0.22247591537168243  -0.492943475920705  3.2815307348458314 
C  -0.035462693111942944  0.5019822106337872  4.395202959036639 
H  -0.7253487516636624  0.166066524478368  4.875847836270034 
H  0.7925850543275229  0.3312383628578879  4.723105195087425 
H  -0.25715411810402167  1.3804865782296631  4.294040919713815 
N  0.0  0.0  -1.8699999999999999 
C  0.0944336531658383  1.1823897471094058  -2.702972185058004 
H  0.897404600518463  1.1230692134935816  -3.2628520936090823 
H  0.15125793737643803  1.979104440202056  -2.1350951926254558 
H  -0.6983833031463513  1.2442467061667735  -3.2743269263528063 
C  -0.09484586538679575  -1.184349367294566  -2.731396614811082 
H  -0.8883669117535803  -1.1101282699531532  -3.3023362155416653 
H  -0.16719875796133501  -1.9878853125195655  -2.1747018208104 
H  0.7056986471873227  -1.246447157204532  -3.2911802854158667 
