46

Ni  0.0  0.0  0.0 
P  1.417200139359293  1.4393205914597345  1.3494094789808993e-15 
N  1.4172001393592932  -1.4393205914597345  -2.220446049250313e-16 
N  2.8125845956030133  0.4909846556723634  -0.006009340041223381 
C  1.4026358390908733  -2.7872355323780753  0.028202539013287006 
H  0.5694970071849604  -3.2414985602813284  0.04865365757998417 
C  2.5837050619028386  -3.529841398883462  0.027149943096835976 
H  2.5335223765049824  -4.478154052852869  0.04099654584827621 
C  3.830683933232586  -2.9195659152893856  0.005500726454607176 
H  4.629623835475968  -3.433039629474538  -0.016329240202548348 
C  3.8684744079879736  -1.5239688975584023  0.01770294420998389 
C  4.861990716379553  -0.47351488198247216  -0.021134616480384366 
H  5.804161618158473  -0.594558126992474  -0.03363840305003465 
C  4.20998222963199  0.717006104215713  -0.03625462411423792 
H  4.6276482172083115  1.5704737731206402  -0.06340128055440855 
C  2.628944478186459  -0.8740967977982241  0.023075753492410138 
N  1.434054468111641  2.4757460958618456  1.3070250171389908 
C  2.180141481869303  3.649603567244562  1.4730096995080741 
H  2.699661694021604  4.081636561623769  0.8049537655227692 
C  2.0288234732120785  4.059184072448147  2.7590978613435 
H  2.415154367245205  4.835626330435021  3.147977367524815 
C  1.1886988337477065  3.121028755966123  3.4211816719909205 
H  0.9199724553231792  3.1606533784014617  4.332450651401357 
C  0.8369821004557878  2.160780731168331  2.5311133092263356 
H  0.28471165938432463  1.408857180277983  2.70719173929432 
N  1.6737102956364907  2.471319274597837  -1.292438423186153 
C  0.9587951989523121  3.65460386741584  -1.5179931547539043 
H  0.5494357723569471  4.191783040414304  -0.8494413048916749 
C  0.9494460810555324  3.903740656069942  -2.851587750024038 
H  0.5510881847993363  4.653613656153533  -3.2777626205126422 
C  1.6436564465879189  2.8375849996406157  -3.5019494222120517 
H  1.7838257127480652  2.749193927662015  -4.438144538210085 
C  2.0667176281853123  1.9744763132428953  -2.545499861550198 
H  2.5479519612558446  1.1701497915012067  -2.6974827984117837 
Br  -1.5839191898578664  1.5839191898578664  0.0 
C  -1.2937473829822488  -1.2398794889499034  -0.4598005675376139 
C  -1.601562203225019  -1.4938654694550033  -1.7919791134336869 
H  -1.1309417375171225  -1.0428217585005106  -2.480879663633267 
C  -2.60218398542082  -2.411889969420291  -2.121542410022959 
H  -2.8231586547736818  -2.5626138747145775  -3.03270050271447 
C  -3.2683208079706407  -3.09759503004543  -1.143064365570095 
H  -3.9596020908062854  -3.707191723557817  -1.3683280760515548 
C  -2.9347449854640226  -2.896087320001541  0.14198826503765638 
H  -3.3668350933519986  -3.405606940434718  0.8171022443470677 
C  -1.9675509241539992  -1.9516175659140573  0.5112421903797603 
H  -1.7755298364628027  -1.8022912010877177  1.4301324877763764 
