85

Pd  0.0  0.0  0.0 
N  2.041092875923809  -0.012992818446016331  1.5924761509467093e-15 
O  0.12682185823796888  -1.8589671467745612  -9.898332153923663e-15 
C  2.8326765989508296  -1.1051395336649406  -0.10502200662334275 
C  2.908491341451665  1.0364992177780372  0.12265426165531669 
O  0.23208526583822298  1.8719599652205776  8.309325449928908e-15 
C  2.414045800329509  -2.47416570391336  -0.22877551009140326 
C  1.025708938163941  -2.780505371423032  -0.1320762584793564 
N  4.099804053868652  -0.6862180700945346  -0.08497679887911216 
C  3.3500415547938056  -3.56876812846472  -0.31846569791090146 
H  4.258658421080748  -3.389387775442041  -0.4018909893299647 
N  4.173441936169439  0.6390492581477633  0.06859501163237636 
C  2.4893517462085106  2.442131701241659  0.3207211219103758 
C  0.6479380719938491  -4.139174455318403  -0.12594574952727172 
H  -0.25225393458499434  -4.36078274920192  -0.05112352439601611 
C  1.1461089973466059  2.7805230289415444  0.2961274851841135 
C  3.4671826107970656  3.4135744987929995  0.555712784195705 
H  4.370601102918013  3.193660028651829  0.531877014511432 
C  0.77191945037515  4.095988112947989  0.5411905499189149 
H  -0.12775262467354742  4.331380995730085  0.5285918153354208 
C  3.059536064490879  4.716265588344092  0.8244719300658013 
H  3.697050862918247  5.364281104956278  1.0220551834451115 
C  2.93009695615258  -4.8333892772870595  -0.2838637612118268 
H  3.5568957301534345  -5.518897736192145  -0.29712270840227556 
C  1.734954729887808  5.060546448400112  0.8043565772169005 
H  1.4803240312977715  5.940379722135077  0.9657425981863926 
C  1.5895431027036975  -5.148196824595652  -0.22886054166150258 
H  1.3181324223911821  -6.037623690176166  -0.26042275634800943 
H  4.948368234417294  -0.9109150775801003  0.2507193380019134 
P  -2.079990375535819  0.0  0.07999037553581889 
N  0.07999037553581911  0.0  -2.079990375535819 
C  -2.0839460435425927  0.9851122695595953  -1.4341342920704419 
C  -3.1740668401763665  1.8250039639454743  -1.72223297385875 
H  -3.851703496595678  1.9299177435429087  -1.0943405700764917 
C  -3.250024368655027  2.488217408648779  -2.9104221131089876 
H  -3.978510406287211  3.035767505209462  -3.0983047220204805 
C  -2.246549651754915  2.340281450413059  -3.822622713198219 
H  -2.308215859943581  2.775299466649091  -4.642075734620272 
C  -1.1453673167552727  1.5625494673239653  -3.555769799470422 
H  -0.4556871351159214  1.497840571905753  -4.175754562111969 
C  -1.069816526829623  0.8709795992289145  -2.347149120479434 
C  0.06310505130520394  -1.0876980352175831  -3.106397302640981 
H  -0.7370187337901778  -1.6074736617234215  -3.010544464315136 
H  0.8284411765034361  -1.6548568954766567  -2.983877660557769 
H  0.0901634954117833  -0.6997851372796148  -3.983652866439764 
C  1.3532182426068566  0.798661134068066  -2.2614870185980642 
H  1.4191323769095407  1.0921009161478767  -3.1727285459617436 
H  2.1092255413245287  0.247422196461011  -2.0473972992010823 
H  1.3374046891232465  1.5617304737269235  -1.6799764990037618 
C  -3.360303954926964  -1.26908018164271  -0.15179674875783467 
C  -3.564283940890266  -2.2165297779756292  0.837056848967876 
H  -3.054227474772385  -2.1778516836892527  1.6143649837469645 
C  -4.50276020940796  -3.21707580151513  0.6968847825337026 
H  -4.63317776452937  -3.8403608823229236  1.3748052272457705 
C  -5.2390452838126  -3.28041245571966  -0.455479004403023 
H  -5.870394859976125  -3.955556262234593  -0.5595576919556355 
C  -5.059122477809456  -2.366018445867634  -1.4548111657121185 
H  -5.571257030855251  -2.4250912384601775  -2.2293430015664657 
C  -4.120092453235343  -1.348456744500934  -1.3262623545152499 
H  -3.9978861930387017  -0.7295546610226202  -2.0089350586970944 
C  -2.733252964113249  1.1859301177465738  1.2936242849939679 
C  -3.904035166707902  0.9517072317138116  1.9845685112135447 
H  -4.354197637467229  0.14601718554268528  1.8747668745196737 
C  -4.4077525903196255  1.9177635629705885  2.841615570591686 
H  -5.181695128673857  1.7485170259471592  3.327520764051724 
C  -3.763171969455099  3.128132433535397  2.9751467668479874 
H  -4.110796457461993  3.7815449535601373  3.5388242934648177 
C  -2.610774185552848  3.3679491005237745  2.2770127726235474 
H  -2.1820751143640997  4.188961770857388  2.3598279373796585 
C  -2.083464946809632  2.402972721434958  1.4535828214214317 
H  -1.2867088733952248  2.5656863892378436  1.0015762155102084 
O  0.0  0.0  1.83 
O  0.011831853455228747  -0.011493514361884949  4.6539593900004 
C  0.4646316305789089  1.168878934592746  2.60043654776426 
H  1.150190464713197  1.6418019927320697  2.104248794972452 
H  -0.2744344333699952  1.7788388504236377  2.756596447221982 
C  1.0284678722108922  0.6801354633268953  3.9378131670893195 
H  1.3419571929522989  1.4359250093426936  4.458774507223428 
H  1.780805161444372  0.08760370980439464  3.779770785759596 
C  -1.0278944992020973  -0.7071341489651266  2.607341780607112 
H  -1.7892276072926545  -0.12466364490179516  2.7522766639905836 
H  -1.3323477248858897  -1.486840598665887  2.115571889635971 
C  -0.4661764231896611  -1.1270608595327938  3.90881315210658 
H  0.2627752264581097  -1.7496170268554745  3.758767422396309 
H  -1.1505787138727082  -1.5863741669394757  4.421272877496715 
