100

Pd  0.0  0.0  0.0 
N  2.078780947825165  -0.012645936169184635  1.3322676295501878e-15 
N  2.3928816020105246  -2.318743906156321  -0.7070460889231585 
N  0.10530229952458581  -2.0590063405705497  -5.828670879282072e-15 
N  2.7077608391713044  2.281971709929968  0.4004065989623353 
N  1.3789684924071803  4.094078226645436  0.5529223071973081 
H  2.027216442372425  4.366448035375202  0.7914486844774071 
C  2.7963324844262605  -1.1572006546341864  -0.2924898438594148 
C  4.241692714691601  -0.8632847416919147  -0.09275867231466672 
C  5.363610821186311  -1.6807977294876886  -0.1457716622751155 
H  5.295336038610574  -2.600587904434918  -0.37631026670999157 
C  6.592029160265232  -1.0987518816081596  0.15340947880965805 
H  7.378936590283865  -1.6320971950648733  0.12872014517692176 
C  6.689722901188628  0.24393858596802764  0.4861224801553081 
H  7.543373829661604  0.6137767718168277  0.6817002616267616 
C  5.560635484262013  1.0675137908755667  0.5410772506442552 
H  5.627032432491392  1.9868177396378723  0.7690845861750595 
C  4.337303741058305  0.4803984799972665  0.24760199137620154 
C  2.963622543319813  1.0228498932094026  0.23902986889097944 
C  1.4139852008332654  2.7571475176030207  0.3001696823833573 
C  0.2622703174575285  4.856692867498934  0.5595083242037702 
C  -0.923675595981633  4.232046407843444  0.26400018415206417 
H  -1.7336730675977383  4.727974013376214  0.259321931694941 
C  -0.9380383895643589  2.876544010724894  -0.02767103754518263 
H  -1.7670010170108255  2.472773104721187  -0.25759584647627276 
C  0.21591675265024945  2.0716522767397345  4.496403249731884e-15 
C  -1.0126613226827834  -2.7248982915026296  0.4117320719895917 
C  -1.2731522740716856  -4.023077050065752  -0.014185789880528377 
H  -2.05713069089967  -4.474540629831286  0.27480958740633865 
C  -0.37706800739695057  -4.65421989498338  -0.8657901500897078 
H  -0.5884129511255158  -5.498326437706823  -1.2474297697465822 
C  0.8239033914815054  -4.041012062973564  -1.1505299678843832 
H  1.473273264735205  -4.483582011926795  -1.685755581989323 
C  1.0795747943331424  -2.75876544607871  -0.6446178636354565 
C  0.40282361527790655  6.3093739892649054  0.8822131102491124 
H  1.3459084608924086  6.516309460031999  1.053489042331455 
H  -0.12817369281182223  6.521151830982352  1.6784473814023724 
H  0.08324610175540736  6.844091039624249  0.1255255070033739 
C  -1.9102824174876358  -2.0643662845529653  1.4218087809361866 
H  -1.5855357798876593  -1.1573099612402429  1.6036918964414903 
H  -1.9067882256647184  -2.585906483757422  2.251501345225682 
H  -2.8223496154445025  -2.019616405310651  1.0671773740939405 
N  -1.957735551313615  -1.7208456881689926e-15  -0.04226444868637902 
H  0.16828420538707084  0.881882996511618  -1.8645953090358545 
N  -0.04226444868638213  -1.6653345369377348e-16  -1.957735551313618 
N  3.6821134479617825  -2.2737009568682236  -5.564317004947324 
C  -2.764782748114828  0.2250078566741614  1.0081556037546717 
H  -2.42901898093914  0.07727476756820223  1.8839353746076124 
C  -4.068403643114941  0.6649658644082423  0.856445440779589 
H  -4.624408297055584  0.8050215926917368  1.6128705314339087 
C  -4.544321345266216  0.8967406930775301  -0.4279059401027707 
H  -5.4322854052264535  1.205340202262938  -0.5620305879102887 
C  -3.706882965301529  0.6711868378424193  -1.5183540810754743 
H  -4.014194441229683  0.8247849275684207  -2.404053473417717 
C  -2.4150089973664692  0.21783758766386468  -1.2893986960454036 
C  -1.4573614843458307  -0.0833918192722288  -2.420738709128274 
H  -1.6363513492804345  -0.9915593717584745  -2.771266703533655 
H  -1.6030034113422653  0.5636394046225657  -3.1559066793269075 
C  0.9004851660640787  -0.5791271832500078  -2.9115113265924837 
C  1.6617609576992227  0.23346571904127106  -3.742472627867183 
H  1.5563256731490869  1.1767336782852627  -3.701977963582972 
C  2.576400546247512  -0.3186400361439365  -4.633076029023659 
H  3.0900726499864097  0.2534690491443939  -5.191543059716626 
C  2.7536254446969926  -1.7187346921118754  -4.7198305084444625 
C  1.9448000485074015  -2.5276043916580058  -3.887631116690968 
H  2.021134283001921  -3.472696182974678  -3.9371824096101697 
C  1.0410856078897834  -1.96056612098594  -2.9985545173968253 
H  0.5125897326591452  -2.5217043419486425  -2.4431981031554657 
C  4.385260375397676  -1.4503358296600974  -6.525956706568984 
H  3.736277477003211  -0.9816662501204745  -7.091595533742015 
H  4.9568970681755395  -2.0169496695894895  -7.085239826169783 
H  4.9390379351028475  -0.7948467045570278  -6.051786946632176 
C  3.813043531444452  -3.7172826744135414  -5.633164067397612 
H  3.9952672612245395  -4.071742743211966  -4.737710131154967 
H  4.552483754912906  -3.9495951798710203  -6.2324928216927615 
H  2.9801663207683595  -4.105327990694844  -5.975231654942139 
S  -1.1148537982948012  1.2177444070922632  6.482972724766736 
O  0.0  0.0  1.83 
O  2.1493652334957534  -2.308683459291658  5.314475691956089 
N  0.6521288028187844  -0.6414694891990818  5.736828090530835 
N  -0.4481745421376173  0.4607506000510412  4.007874836700297 
C  -0.25917223549571966  0.2963126642809508  5.3454595044367785 
C  0.24306134563681636  -0.28902471923844886  3.0295051120884633 
C  1.119354413160979  -1.2543538536633894  3.480631005869225 
H  1.5635578140896846  -1.782993715814968  2.85973183954048 
C  1.3569323750784368  -1.461132186724324  4.824087340473253 
C  0.8985384149006875  -0.8928957629213126  7.177262893621834 
H  0.7850444009416953  -0.06720952242109979  7.670952270704328 
H  1.8143904519336003  -1.1907983804672293  7.299172395802572 
C  -0.045006674777821054  -1.9378465964499316  7.724517641661011 
H  -0.9497511438579467  -1.630147497593317  7.635041777699002 
H  0.1508989548977544  -2.092418214373315  8.651503466360593 
H  0.06339805944392185  -2.7564686970537355  7.232879400673464 
C  -1.4140564569616367  1.4731152337655078  3.513578695687583 
H  -2.132445206345865  1.571939959626339  4.160053109966057 
H  -1.8032618327379453  1.1633896554578886  2.6811033557472133 
C  -0.7614183719931404  2.8172339772571586  3.2873991355078855 
H  -1.4118642309846283  3.436524180026325  2.9504670514390794 
H  -0.0498378457915053  2.723811891825268  2.649742293088579 
H  -0.4068279270194881  3.1446195258290635  4.117759761332389 
