95

Pd  0.0  0.0  0.0 
S  6.376574217596054  -0.2390029885209781  0.15999171995554531 
N  0.2610090737816263  -2.0766007114483016  -3.50657025447949e-15 
N  1.873822844632736  0.010251585805393204  -7.592405388048784e-15 
N  -0.12349080758709641  4.414070842732824  0.23558834218058913 
C  1.5922104115938769  -2.3560710362846726  0.027701006168144384 
C  2.0526042593896507  -3.7036838076538343  0.07469370086136565 
C  1.1125374307664984  -4.710772285377928  0.12443398391020093 
C  -0.21154794688605483  -4.410220400759146  0.1198911501256048 
C  -0.6247385274936519  -3.1026632190741514  0.04860110368748433 
C  2.516266063962659  -1.196514098780606  0.029053785341824505 
C  3.8902406244710406  -1.2525695906527268  0.08444023591209332 
C  4.634100446924445  -0.050278581333979874  0.1194612788848738 
C  3.951769759489732  1.166397875505047  0.1113315581944913 
C  2.5489004702445586  1.167330494646941  0.05956499066025215 
C  6.99646593598605  1.3798563023784964  0.45440943976864884 
C  -0.5930244923049179  3.146111269891546  0.07111545518862823 
C  0.2651680815856374  2.0663491256429083  1.1085097854720459e-14 
C  1.646771800963812  2.3436971661771864  0.07435749466055452 
C  2.12055499383266  3.649398971584866  0.21459166136084307 
C  1.2026354661318834  4.688971636916256  0.29110959495403077 
C  -1.08699687012684  5.493463284127441  0.3826333859914094 
H  3.0125791295542497  -3.8649387803777433  0.0872289481373693 
H  1.38934816714521  -5.623871247896103  0.15841663939361608 
H  -0.8772406044856071  -5.1129490876905965  0.15262902088173655 
H  -1.5863910393320426  -2.89811185986762  0.04961496841049554 
H  4.351352221596264  -2.091467794443468  0.07727304167077358 
H  4.443230105258849  1.990037616936813  0.14631390904050104 
H  6.72027900538256  1.9833803738539253  -0.23353705852430953 
H  6.639615631720819  1.7253731392913285  1.29390006851656 
H  7.938925794782288  1.3870909692875553  0.5197727639840818 
H  -1.5343303424041774  3.0098750097827933  0.028641368965494053 
H  3.057473567883311  3.8334968265746587  0.2625602488640426 
H  1.512795507486704  5.568099894603467  0.4058219538462795 
H  -1.6751112307073937  5.523151599712182  -0.33641461852335686 
H  -1.609630628066456  5.323248186225792  1.20010293619389 
H  -0.6380931491710113  6.3132866320987455  0.5052835691675055 
N  -1.9231369366188313  1.4467593789646571e-15  -0.07686306338116866 
N  -0.07686306338116844  -1.942890293094024e-16  -1.9231369366188313 
C  -2.8292491027251643  0.034004681036839166  0.9118664517552499 
H  -2.5205174260974443  0.04850478264198051  1.809999503646814 
C  -4.185389084158298  0.045789463153411473  0.6805382873025767 
H  -4.7851380195725985  0.07057408831583928  1.4165729242762168 
C  -4.696990743778251  0.02598821929635013  -0.6246605797732181 
C  -3.7407129086859285  -0.0030551164076685604  -1.6532233813377826 
H  -4.03225195957366  -0.02424343630172259  -2.5573306575542536 
C  -2.3965359211375334  -0.00031838214526961825  -1.380200824703808 
C  -1.348381155604991  0.0432067266650602  -2.4072835878707064 
C  -1.6157167346588825  0.12071775164323544  -3.7644457517917216 
H  -2.512139128454594  0.07943768798511677  -4.0739729044714 
C  -0.5744864313819784  0.255392401363739  -4.668161489322362 
C  0.7187153487904204  0.24898524733595684  -4.166635852753084 
H  1.4593417422974864  0.34832369361584126  -4.753462631565528 
C  0.9265535625224877  0.09667224463114361  -2.8049951122786845 
H  1.8185786197326528  0.05835831469555767  -2.483153349789549 
C  -6.174295942231751  -0.02204102053742004  -0.9520479080913615 
C  -6.464820382897603  -1.4898389472138944  -1.3726071141731249 
H  -7.424732864699244  -1.5960246610239097  -1.5457212714917983 
H  -6.193630399293992  -2.0948402113562374  -0.6517221627563048 
H  -5.960796793680677  -1.7016013036458295  -2.1859207657930257 
C  -6.488154488317336  0.9311482182572396  -2.088113420328715 
H  -6.327882932276163  1.8527007946773775  -1.7941180849616334 
H  -7.427799404579772  0.8309302202445721  -2.349306077607803 
H  -5.911852244638102  0.7277930117716116  -2.853715271113785 
C  -7.031477240694341  0.3338936053883569  0.2577885286360271 
H  -6.777172715941885  1.2207354450422732  0.5889948240618565 
H  -6.892893704603982  -0.332192677012898  0.9641455544534123 
H  -7.977330929593835  0.3407793731031695  -0.0018438372166069694 
C  -0.8808751542461672  0.3439308446199244  -6.1620225486472915 
C  0.28482214880316564  0.2410659488658644  -7.004834835508971 
H  0.08012074086193793  0.6058224486250003  -7.890463747339641 
H  0.5449344315078029  -0.6997895258573488  -7.091035160737606 
H  1.0218724214053063  0.7468102801279245  -6.604335812971549 
C  -1.9481528297253092  1.2892811092042704  -6.439597422643789 
H  -1.579990773890069  2.197272852727313  -6.470156125776471 
H  -2.625574752666182  1.2351662562744163  -5.734225456223591 
H  -2.359757683168561  1.073660925237108  -7.303479168537269 
C  -1.6085794782441893  -1.1045706201668986  -6.537919733187179 
H  -1.776015147918103  -1.145574158446653  -7.502057983838705 
H  -2.4588134748543347  -1.1771492906726482  -6.055715359922095 
H  -1.0205499912269642  -1.8430711514755835  -6.27601399125883 
N  0.0  0.0  1.91 
C  -0.0724865457301731  0.010600501699379053  3.2858600474073762 
C  0.2769930582010055  1.3921852039382494  3.829153850957204 
H  1.0932819155709221  1.697389577425928  3.4282378850270483 
H  0.38679699616705165  1.3425139320230348  4.781944420785366 
H  -0.4307480670678952  2.0066994537840532  3.620679544771625 
C  1.0808875846652983  -0.9475532072623055  3.8723337939105393 
H  0.9692319730985117  -1.8344517345589948  3.5211092408328684 
H  1.018990786544539  -0.9736311626794005  4.830541248809354 
H  1.9406831808514982  -0.6082068845486619  3.615852730204961 
C  -1.3568162234985817  -0.44647134483092593  3.8432707451094146 
H  -2.0724913751164054  0.06734203370379496  3.4633435423513843 
H  -1.3510560300821532  -0.3307001171468906  4.79679517217583 
H  -1.4832672536036169  -1.3757162515472587  3.6358072776576016 
