58

Co  0.0  0.0  0.0 
P  1.6035747176231003  1.5352355275331542  -7.638437038657251e-16 
C  1.0153063157470608  2.23447525703897  1.5655322379417513 
C  1.760349797850223  3.146349900957259  2.2577057447697135 
C  1.2725504135590082  3.675523819506026  3.4503377729380382 
C  0.04221612661766172  3.3053484198309233  3.9204555090978013 
C  -0.6829462674641635  2.388109371003876  3.2260514195963115 
C  -0.19910950902148494  1.8131476083495541  2.058508451365546 
C  2.1304175180018508  2.928970535371417  -0.9917636571357054 
C  1.5849382306053217  4.225221543317836  -0.8170859784836044 
C  1.9336783774135382  5.255038953510526  -1.6610914652360458 
C  2.848259354802021  5.009476029621077  -2.659927400818087 
C  3.4359493465530297  3.755709415000813  -2.8751544661684507 
C  3.091309129258054  2.6996206938094716  -2.027333380328223 
C  3.1386329491304896  0.6516465272318919  0.40291131087135185 
C  4.326177990337559  1.2888707397095271  0.8176992544483066 
H  2.607865901690927  3.4248072075614866  1.932761284700906 
H  1.7946815830663692  4.303093601289358  3.943230206255209 
H  -0.2918425596078018  3.6800012758159664  4.721367421644757 
H  -1.5409445100532317  2.1449953873145295  3.5529540146438587 
H  -0.6969106437855075  1.1410352962680328  1.6101746581086778 
H  0.9656240773940055  4.381326890479185  -0.11314501489376008 
H  1.548428869050301  6.119251203817083  -1.5498128386900287 
H  3.087104723284506  5.729905471986307  -3.2404032819085717 
H  4.0664171916757095  3.6233312740867882  -3.579025856462559 
H  3.485810930392576  1.8500940891876705  -2.134825598378546 
H  4.55487542847748  1.0033535717318367  1.687773974560465 
H  5.029915443495447  1.0743262323079499  0.21274066795937446 
H  4.190269546263704  2.2333565361852648  0.8144167119863701 
C  3.181125370196689  -0.6717172098388214  0.35615424126501166 
P  1.6035747176230992  -1.5352355275331542  5.551115123125783e-17 
C  2.1048127713302422  -3.0139955186127474  -0.9430561819415544 
C  2.8511678363019017  -2.791533349860842  -2.099393689101732 
C  3.1690811886941983  -3.89642459917006  -2.892730173558743 
C  2.820351413013314  -5.169990358257001  -2.5378251287441183 
C  2.1325687774476147  -5.385057619324453  -1.357187089618122 
C  1.7744526075120095  -4.293233892646265  -0.5489649303740056 
H  1.2916813490629309  -4.436295833997318  0.26243933566875216 
H  1.9138967913386788  -6.268657188036693  -1.0915798708481383 
H  3.051573317955922  -5.901443630319031  -3.096591879244252 
H  3.6382312436696327  -3.760979192735177  -3.7069257138267253 
H  3.1290585431258897  -1.9177485781160835  -2.3385490104471494 
C  1.0196754112661666  -2.099098993089456  1.6264532493271329 
C  -0.25974972898780924  -1.778960443540818  2.0227323802172577 
C  -0.6967566380572321  -2.255426635132521  3.306587395277667 
C  0.12458986183461995  -2.9666019436888313  4.117780989689789 
C  1.4209788406519697  -3.217022672694335  3.728134631968657 
C  1.8849921643226446  -2.824138347010974  2.4654507118649445 
H  2.771064722988075  -3.034639354318481  2.1854652002707775 
H  2.015722153819398  -3.6671275996629937  4.320297950793144 
H  -0.19871828035430683  -3.29222614989989  4.9520394457594925 
H  -1.5854072510774708  -2.059194334226824  3.587742373999511 
H  -0.8275733636039768  -1.2668900407256882  1.4613074853897672 
H  3.9878287216154806  -1.1528221522099846  0.4988174363636462 
O  -2.95016838623411  2.949501489761185  -0.0005759221121666158 
N  -1.2869343417595165  1.2869343417595167  -4.0539656146541486e-17 
C  -2.1067964512829906  2.1074633477559153  0.0005759221121666158 
O  -1.2303657992645929  -1.2303657992645929  0.0 
