38

Co  0.0  0.0  0.0 
C  1.176401126113894  -2.7132024819723304  -0.08076680796809807 
N  1.2477820552885026  -1.324930165140789  1.6225714858334413e-16 
O  0.19200769554441655  -3.2649835488048726  -0.6174977164658508 
C  2.2580515739288307  -3.4645552560215336  0.4957521055727742 
H  2.2229272791758867  -4.413365995692796  0.48202788601095636 
C  3.3274678127316673  -2.849008545366532  1.0593957387193378 
H  4.013627215450743  -3.366337754885409  1.46528146529612 
C  2.3817172716833896  -0.7357749737673226  0.4808180378242958 
C  3.421565069165679  -1.451955795946105  1.0452956795556716 
H  4.1773503658496445  -1.0096722021253455  1.4128007787765149 
C  1.1411781645502252  2.7130625613901898  0.016007528302491962 
N  1.2477820552885026  1.3249301651407894  -1.6225714858334418e-16 
O  0.04211244544335946  3.264903314387392  -0.20566371118431817 
C  2.3403497692215547  3.4644153354393934  0.2696395678372888 
H  2.304621236536523  4.413226075110655  0.257575479117176 
C  3.521880383861904  2.849008545366531  0.525251342604908 
H  4.308427749922872  3.3662575204679293  0.65532327923659 
C  2.4254837830945744  0.7356350531851833  0.3605704804166096 
C  3.5848927142044444  1.4518158753639652  0.596556455436354 
H  4.4000856258867245  1.0095322815432064  0.8008403984666174 
O  -1.2303657992645927  1.2303657992645929  -1.630327073457176e-17 
H  -1.1681799880632373  1.405734364855813  -0.7993590564244001 
C  -2.1993123020906347  2.056718489105931  0.5857013288811681 
H  -1.7742107323350071  2.593852198945174  1.272333787439335 
H  -2.8646709061608413  1.4986018673016073  1.0174701958174905 
C  -2.884486139807115  2.960853029872432  -0.36477512758780634 
H  -3.508767452529958  3.512092333068362  0.1114376118439617 
H  -3.349780454508183  2.4394157042016498  -1.021457848621464 
H  -2.2353617249443376  3.5175017130883477  -0.8013508913482832 
F  -1.6552315663718564  -1.0569906316605193  -1.3645733953121866 
F  -1.8170060067127665  -2.6360128216478906  1.7975982309566798 
F  -2.7884715220075385  -4.373993817570315  -0.1506499720209512 
F  -3.5095835906843353  -2.739029313792466  -1.327723948368712 
F  -4.210317274299959  -3.0352249384322474  0.671243831909583 
C  -1.3152186130069785  -1.3152186130069785  0.0 
C  -2.0763595674511066  -2.273306908325809  0.4469949505765589 
C  -3.16068285347704  -3.1030939495753564  -0.07288969774097215 
