36

Ru  0.0  0.0  0.0 
C  2.70167  0.65745  -0.20727 
C  3.98763  1.36829  -0.47614 
H  4.0268  2.44904  -0.48351 
C  5.12345  0.6921  -0.73987 
H  6.03603  1.23919  -0.94556 
C  5.16573  -0.8141  -0.77179 
H  6.08915  -1.3761  -1.02064 
C  3.86749  -1.50634  -0.50453 
C  3.74184  -2.84459  -0.56091 
H  4.59815  -3.4664  -0.80124 
C  2.42561  -3.49136  -0.31153 
H  2.34324  -4.5725  -0.3648 
C  1.33645  -2.74841  -0.04163 
H  0.39256  -3.25078  0.11629 
C  2.6785  -0.68833  -0.21338 
C  1.69515  3.77657  -1.4497 
C  1.06269  3.268  -2.58751 
H  0.36473  2.4392  -2.51306 
C  1.33249  3.83424  -3.82807 
H  0.82722  3.44185  -4.701 
C  2.24533  4.90741  -3.92894 
C  2.89068  5.37223  -2.7673 
H  3.604  6.18278  -2.801 
C  2.61395  4.80701  -1.53447 
H  3.11111  5.16674  -0.64176 
N  1.44477  1.32447  0.0 
N  1.44477  -1.32447  0.0 
N  2.50849  5.5176  -5.18989 
O  0.04226  3.52351  0.75868 
O  2.38806  3.44588  1.18135 
O  1.92445  5.1598  -6.16901 
O  3.26944  6.42204  -5.27055 
S  1.35283  3.07196  0.10907 
Cl  -1.58392  1.58392  0.0 
Cl  -1.58392  -1.58392  0.0 
