37

Co  0.0  0.0  0.0 
C  7.23036651110064  0.14798881057332292  -1.3963662417997524 
H  8.143246966355957  0.1738998790669437  -1.5745027651249393 
C  6.562460119257432  -1.0613477415357004  -1.354305149706668 
H  7.028322597144826  -1.8503256778879114  -1.51563787312642 
O  1.1259021838063914  1.3792549700834862  0.0 
N  1.1259021838063914  -1.3792549700834866  0.0 
C  3.0596134395867463  0.053421328251976874  -0.47789741938646346 
C  2.396851815276375  1.2717019264348408  -0.27071133531544267 
C  4.464610676038035  0.04810578097534979  -0.818072154664468 
C  0.6838309701426892  -2.8118166848187975  0.041201401972888727 
H  -0.18939843251547628  -2.8855044490135837  -0.3724413590434976 
H  1.3041743342820848  -3.3495331702305604  -0.4752124939329562 
C  2.357750372106408  -1.1873544109113288  -0.33868998563792735 
H  2.8530682576873856  -1.9536856026967175  -0.514534907999575 
C  5.160479816118448  1.283113293688458  -0.8923566310100872 
C  3.134100017010144  2.4916203907476104  -0.3641852325762244 
H  2.700254658404461  3.3011395182606424  -0.21835681625467449 
C  6.5391215170474934  1.3056670713979697  -1.1732793918724178 
H  6.986225462441336  2.1200086575167516  -1.2079009621837065 
C  0.6123806815893977  -3.349747057442424  1.4360252297284615 
H  -0.02571810313262457  -2.9819405561040293  2.0034519902090464 
C  4.445876852705141  2.48814283576029  -0.6604975845721643 
H  4.898827640230582  3.2990174704424478  -0.7147966721258497 
C  1.3621847624102177  -4.281510174396941  1.914036426530034 
H  2.0131501688916984  -4.675393326376533  1.379052050916097 
H  1.2535969806139966  -4.559632046944395  2.7954926180990234 
C  5.220742978357498  -1.1121020919048443  -1.0771139526351394 
H  4.795872230354917  -1.9394596434465483  -1.0596973112069112 
P  -1.5697770542341356  1.5697770542341356  0.0 
H  -2.8413758658655874  1.4105144156397778  0.7586294907301202 
H  -1.4129947073178402  2.8438561575436503  -0.7586294907301202 
O  -1.230365799264593  -1.2303657992645927  1.0138975768227891e-16 
C  -2.2075509561259645  -2.207672175244403  -8.17253388775141e-05 
H  -2.9643740392208207  -1.9130278814289472  -0.5486731680508377 
H  -2.511947124516362  -2.3654990151550273  0.9181708386505021 
H  -1.8399090964111977  -3.0375821444459676  -0.3694159452607869 
