30

Fe  0.0  0.0  0.0 
Cl  4.83975  -0.1009  -0.89996 
O  1.17353  1.35164  0.0 
O  1.17353  -1.35164  0.0 
C  3.26866  2.45206  -0.24914 
H  2.75971  3.32171  0.22111 
H  3.24627  2.60533  -1.35194 
H  4.3193  2.45088  0.10365 
C  2.54253  1.16078  0.16434 
C  3.14349  -0.11768  -0.37249 
C  2.48258  -1.28753  -0.30827 
C  3.17006  -2.59141  -0.60437 
H  2.47304  -3.43854  -0.42867 
H  4.03052  -2.71443  0.08928 
H  3.52659  -2.62683  -1.65365 
N  -1.408  1.23062  0.0 
N  -1.408  -1.23062  0.0 
O  -1.25252  2.5607  -0.1461 
O  -1.20898  -2.55632  -0.00354 
C  -2.69968  0.66459  -0.0026 
C  -2.69985  -0.67557  -0.01348 
C  -3.91586  1.56491  -0.02905 
C  -3.92046  -1.58952  -0.02588 
H  -0.49072  2.82898  0.42003 
H  -3.9057  2.20572  0.87503 
H  -3.87483  2.20619  -0.9298 
H  -4.88631  1.03435  -0.04402 
H  -3.89659  -2.23479  0.8652 
H  -4.88334  -1.05497  -0.05847 
H  -3.86328  -2.22154  -0.93681 
