53

Fe  0.0  0.0  0.0 
O  1.45622  1.10902  0.0 
N  1.45622  -1.10902  0.0 
C  2.27072  0.01052  -0.36777 
C  3.71527  -0.07208  -0.00214 
H  4.34123  0.81834  -0.00345 
C  4.248  -1.29526  0.12853 
H  5.32295  -1.39335  0.25397 
C  3.37604  -2.51538  0.09569 
H  3.85294  -3.49214  0.14727 
C  2.01886  -2.41164  0.06083 
H  1.39236  -3.29232  0.10237 
S  -1.57411  -2.19064  -1.51972 
O  -1.95322  -3.62967  -1.13254 
O  -0.21006  -2.33172  -2.20856 
N  -1.27316  1.36966  0.0 
N  -2.46224  1.28211  0.67489 
N  -1.27316  -1.36966  0.0 
F  0.23041  1.53337  -2.36322 
F  -2.21148  3.84794  1.07829 
C  -0.9742  2.62831  -0.59964 
C  -0.23729  2.67295  -1.79731 
C  -0.03496  3.89011  -2.45764 
H  0.5038  3.9149  -3.39608 
C  -0.5433  5.07483  -1.92164 
H  -0.38745  6.01463  -2.43531 
C  -1.26324  5.047  -0.72755 
H  -1.65708  5.96616  -0.31299 
C  -1.49339  3.83445  -0.07343 
C  -3.00728  0.20617  1.07579 
C  -4.18482  0.3242  1.95466 
H  -4.6177  1.30428  2.14156 
C  -4.68724  -0.75462  2.57036 
H  -5.53008  -0.633  3.24261 
C  -4.08347  -2.1003  2.38903 
H  -4.47808  -2.93221  2.96205 
C  -3.05793  -2.30171  1.5432 
H  -2.62818  -3.2929  1.44461 
C  -2.51503  -1.15612  0.73142 
C  -2.81512  -1.29732  -2.40003 
C  -4.16415  -1.55523  -2.15725 
H  -4.46587  -2.33544  -1.47001 
C  -5.13064  -0.77624  -2.7782 
H  -6.18151  -0.96943  -2.58282 
C  -4.74772  0.26881  -3.64099 
C  -3.38565  0.51808  -3.86897 
H  -3.06951  1.32288  -4.51711 
C  -2.42202  -0.26585  -3.24502 
H  -1.37383  -0.06303  -3.40448 
C  -5.76811  1.11651  -4.31113 
H  -6.79808  0.80559  -4.04518 
H  -5.64081  1.03521  -5.41188 
H  -5.62458  2.17574  -4.00554 
