39

Ru  0.0  0.0  0.0 
N  1.3778016248720277  1.394009570447778  1.0805235459042531e-16 
N  1.3778016248720277  -1.394009570447778  5.551115123125783e-17 
C  3.3880311975886857  2.446953288422766  -0.9531699385484587 
H  2.8376204416981086  2.9020191347757653  -1.6246566363191604 
H  4.225063104979686  2.149301580144524  -1.3648679547793945 
H  3.586373221480114  3.065491559808543  -0.2200388872419749 
C  2.637693505559752  1.2499536728003222  -0.4151476452181371 
C  3.260788874251877  0.005239782893064149  -0.48403272187757646 
H  4.209605957871239  -0.003713806999430247  -0.5323414691198374 
C  2.604691865009181  -1.2328475025806007  -0.4846310622906936 
C  3.2785033441166727  -2.358181473204705  -1.22538880621402 
H  3.3639729692222162  -3.134394454764385  -0.6332378031391661 
H  4.168269409132803  -2.070964090707546  -1.5151964402356777 
H  2.742001591500269  -2.601574820132024  -2.00803100294958 
C  0.588954015782976  2.5437257122710957  -0.33347241694840263 
C  0.8314659975598543  3.80189932325758  0.200125787051468 
H  1.5680782528998398  3.934474191406179  0.7861027060664958 
C  -0.005001170401287558  4.876441307584734  -0.12313714129222836 
H  0.17218227122695828  5.739941889301216  0.23443963841818422 
C  -1.0871387829958312  4.684817508392168  -0.9613880804454364 
H  -1.6534281054580013  5.413461623564009  -1.1840770264907978 
C  -1.3414244475961725  3.430373201070602  -1.472683533786541 
H  -2.089523834385556  3.297093459712498  -2.0417350587198047 
C  -0.50962502212428  2.358342053163943  -1.1615922068380293 
H  -0.6950944605353153  1.4956892740917573  -1.5178753529094293 
C  0.6489376422224191  -2.6048211177873166  -0.25772782470155503 
C  0.9966190115117906  -3.7893125409484996  0.3501271694431611 
H  1.7561482580046281  -3.841213382616869  0.9177056101508367 
C  0.20098124380864113  -4.919169167036134  0.11060298049718148 
H  0.44825094710860525  -5.75177295943849  0.49591273732558955 
C  -0.9049459671740512  -4.8484951543976464  -0.6551833264747167 
H  -1.4392559956406217  -5.621198676550653  -0.7869680005927528 
C  -1.2579083732146485  -3.6739491256540524  -1.2380211309149263 
H  -2.0421259103831764  -3.6271780263860207  -1.7730386434045902 
C  -0.46923423076862036  -2.5332565553087707  -1.0550719385250644 
H  -0.703040312427941  -1.715464339840831  -1.4788494491354816 
Cl  -1.5839191898578666  1.5839191898578666  0.0 
Cl  -1.5839191898578666  -1.5839191898578666  0.0 
