27

Ru  0.0  0.0  0.0 
O  6.14553  3.37768  0.13876 
O  4.77161  5.09116  0.24924 
N  1.43308  1.33712  0.0 
N  1.43308  -1.33712  0.0 
C  1.34037  2.7526  0.01164 
H  0.38864  3.26446  -0.00844 
C  2.4675  3.47581  0.05975 
H  2.37707  4.55743  0.07442 
C  3.82319  2.82024  0.08755 
C  3.90233  1.4442  0.05379 
C  5.10944  0.68816  0.06531 
H  6.08409  1.13569  0.09864 
C  5.09356  -0.71918  0.02927 
H  6.03475  -1.25634  0.03108 
C  3.87864  -1.41907  0.00071 
C  3.8189  -2.76717  -0.03094 
H  4.72823  -3.3618  -0.04368 
C  2.50139  -3.4703  -0.04172 
H  2.46883  -4.55478  -0.06526 
C  1.35702  -2.76117  -0.01727 
H  0.40987  -3.2827  -0.02238 
C  2.69188  -0.68906  0.00321 
C  2.69857  0.70648  0.01513 
C  4.99131  3.76463  0.15558 
Cl  -1.58392  1.58392  0.0 
Cl  -1.58392  -1.58392  0.0 
20

Ru  0.0  0.0  0.0 
S  1.74661  1.46552  0.0 
S  1.74661  -1.46552  0.0 
C  4.16475  0.0047  -0.33116 
C  2.67229  0.00493  -0.61473 
C  4.85011  1.13716  0.17048 
H  4.32259  2.04452  0.42637 
C  4.89689  -1.14178  -0.65935 
H  4.3975  -2.01948  -1.04706 
C  6.24831  1.12174  0.29283 
C  6.96194  -0.03594  -0.04673 
H  8.04238  -0.0637  0.02793 
C  6.28545  -1.16499  -0.51089 
H  6.83638  -2.05567  -0.78319 
C  6.96955  2.36078  0.7451 
H  8.06684  2.19669  0.80149 
H  6.60279  2.68378  1.74169 
H  6.78194  3.17126  0.0093 
Cl  -1.58392  1.58392  0.0 
Cl  -1.58392  -1.58392  0.0 
31

Ru  0.0  0.0  0.0 
O  1.41922  1.32401  0.0 
N  1.289  -2.72838  0.14142 
C  2.64038  0.74607  -0.07602 
C  2.70998  -0.60391  -0.07666 
C  1.41922  -1.32401  0.0 
C  3.85609  1.61192  -0.15219 
C  2.44509  -3.55023  0.10545 
C  3.06008  -3.96671  1.30471 
C  4.19984  -4.77993  1.24329 
C  4.72321  -5.17313  0.00931 
C  4.11805  -4.75175  -1.1777 
C  2.98364  -3.93276  -1.14037 
C  2.33636  -3.46935  -2.42129 
C  2.52956  -3.50791  2.63812 
H  0.42374  -3.12463  0.52066 
H  3.65932  -1.12215  -0.1269 
H  3.56601  2.61502  -0.53277 
H  4.60812  1.18002  -0.84582 
H  4.28585  1.73076  0.86301 
H  4.69662  -5.10383  2.15223 
H  5.60453  -5.79844  -0.03132 
H  4.54737  -5.06036  -2.12323 
H  2.85331  -3.87946  -3.31234 
H  2.37064  -2.36114  -2.48196 
H  1.27551  -3.79755  -2.44463 
H  2.55648  -2.39735  2.68307 
H  3.14325  -3.89675  3.47792 
H  1.48374  -3.85114  2.77231 
Cl  -1.58392  1.58392  0.0 
Cl  -1.58392  -1.58392  0.0 
38

Ru  0.0  0.0  0.0 
C  8.53574  -3.31324  -0.09305 
H  9.257  -4.14356  -0.20754 
H  8.60139  -2.9158  0.94332 
H  8.78375  -2.51042  -0.82096 
C  6.14952  -3.00664  -0.25584 
C  6.21349  -1.64157  0.07529 
H  7.15295  -1.14635  0.28512 
C  5.05943  -0.87672  0.13829 
H  5.1376  0.17208  0.39565 
C  3.81846  -1.46808  -0.10872 
C  3.72796  -2.83002  -0.43357 
H  2.78407  -3.30538  -0.65313 
C  4.89945  -3.59325  -0.52272 
H  4.83859  -4.64162  -0.79141 
C  2.60255  -0.67471  -0.03073 
C  2.80738  3.44461  -0.34778 
H  3.63768  2.73324  -0.52542 
H  3.10219  4.12798  0.47362 
H  2.65491  4.02665  -1.27946 
C  1.4993  2.75574  0.04773 
C  0.31598  3.59975  0.30347 
C  -0.23157  4.36629  -0.73555 
H  0.24128  4.39339  -1.71104 
C  -1.42488  5.05816  -0.52535 
H  -1.86298  5.62956  -1.33276 
C  -2.07063  4.97551  0.71306 
H  -3.01519  5.47838  0.8583 
C  -1.50783  4.23124  1.75765 
H  -2.02138  4.14346  2.70428 
C  -0.30034  3.55626  1.56243 
H  0.1114  2.93624  2.35114 
N  2.61928  0.61293  -0.01588 
N  1.42169  1.29104  0.0 
O  1.42169  -1.29104  0.0 
O  7.25891  -3.77819  -0.32998 
Cl  -1.58392  1.58392  0.0 
Cl  -1.58392  -1.58392  0.0 
77

Ru  0.0  0.0  0.0 
N  1.63902  1.07481  0.0 
N  1.63902  -1.07481  0.0 
C  2.54641  0.00858  0.0445 
C  4.0856  0.01769  -0.04001 
C  4.51839  -0.61111  -1.35683 
H  4.05242  -0.08295  -2.21734 
H  4.19793  -1.6644  -1.34654 
H  5.62109  -0.59567  -1.46844 
C  4.62126  -0.79709  1.13047 
H  4.30811  -1.85082  1.01502 
H  4.21776  -0.3825  2.08275 
H  5.72786  -0.77962  1.16805 
C  4.67252  1.43147  0.05936 
H  5.78084  1.3947  0.02737 
H  4.37162  1.91059  1.00576 
H  4.34712  2.0621  -0.78122 
C  1.85195  2.48534  -0.05836 
C  1.90305  3.25377  1.1359 
C  2.1014  4.64561  1.04758 
H  2.14089  5.26072  1.9353 
C  2.25925  5.26984  -0.18219 
H  2.41968  6.3398  -0.22908 
C  2.20946  4.52744  -1.35341 
H  2.33171  5.05066  -2.29155 
C  2.00816  3.13535  -1.31971 
C  1.73547  2.61085  2.50601 
H  1.68749  1.50675  2.40797 
C  2.90557  2.94374  3.4496 
H  3.87483  2.6227  3.024 
H  2.76997  2.42319  4.42025 
H  2.96331  4.03352  3.65493 
C  0.41259  3.06727  3.12356 
H  0.40848  4.16545  3.28877 
H  0.24903  2.55489  4.09403 
H  -0.42564  2.80686  2.44332 
C  1.94996  2.37018  -2.63745 
H  1.86365  1.28228  -2.44209 
C  3.20817  2.58993  -3.50329 
H  3.31106  3.65875  -3.80581 
H  3.1427  1.99077  -4.43524 
H  4.13362  2.29816  -2.97538 
C  0.70475  2.7913  -3.4205 
H  -0.19872  2.64539  -2.79116 
H  0.60361  2.17583  -4.33667 
H  0.76529  3.86207  -3.71472 
C  1.87332  -2.48005  -0.00047 
C  2.00491  -3.18848  1.23225 
C  2.21191  -4.58013  1.20077 
H  2.30997  -5.15126  2.11365 
C  2.29442  -5.26482  -0.00307 
H  2.46293  -6.33491  -0.0064 
C  2.14944  -4.58574  -1.20422 
H  2.20365  -5.15845  -2.11832 
C  1.937  -3.19369  -1.23354 
C  1.88496  -2.49222  2.58819 
H  1.79993  -1.39637  2.44774 
C  3.08503  -2.77186  3.51008 
H  3.17093  -3.84971  3.75551 
H  2.96716  -2.21231  4.46253 
H  4.04799  -2.46959  3.07201 
C  0.59722  -2.9533  3.2828 
H  -0.2804  -2.7512  2.63205 
H  0.46288  -2.40256  4.23682 
H  0.63397  -4.04175  3.50351 
C  1.74283  -2.50298  -2.58199 
H  1.69008  -1.40205  -2.44185 
C  2.87256  -2.80359  -3.59188 
H  3.87314  -2.51956  -3.22865 
H  2.69315  -2.24065  -4.53099 
H  2.9149  -3.88254  -3.84249 
C  0.40542  -2.94862  -3.17707 
H  0.40094  -4.04149  -3.37343 
H  0.21059  -2.41448  -4.12898 
H  -0.41845  -2.71355  -2.47003 
Cl  -1.58392  1.58392  0.0 
Cl  -1.58392  -1.58392  0.0 
52

Ru  0.0  0.0  0.0 
C  2.84171  0.99312  0.08404 
C  3.02516  -0.37719  0.04392 
C  4.31147  -0.92858  0.15621 
H  4.4471  -2.00396  0.14531 
C  5.42007  -0.09444  0.31195 
C  5.23268  1.28794  0.37358 
H  6.11485  1.89267  0.50815 
C  3.94336  1.87005  0.257 
C  3.73429  3.39788  0.33891 
C  5.05601  4.16563  0.54473 
H  5.54162  3.86196  1.49883 
H  4.87317  5.25918  0.59577 
H  5.7561  3.98008  -0.29885 
C  2.8116  3.73813  1.53365 
H  1.80554  3.2851  1.44852 
H  2.66209  4.83554  1.60764 
H  3.26455  3.37886  2.48385 
C  3.10327  3.8924  -0.98154 
H  3.7631  3.63217  -1.83771 
H  2.96714  4.99327  -0.95788 
H  2.10828  3.44506  -1.17105 
C  6.80069  -0.67685  0.42754 
H  7.11703  -1.06943  -0.56112 
H  6.81845  -1.49818  1.17434 
H  7.53825  0.0913  0.74685 
C  1.97014  -2.6732  -1.26195 
C  2.94831  -2.46771  -2.25105 
H  3.56779  -1.58472  -2.25888 
C  3.0974  -3.3881  -3.29382 
H  3.83916  -3.2155  -4.06297 
C  2.27394  -4.51345  -3.3628 
H  2.38093  -5.21691  -4.1773 
C  1.28799  -4.71559  -2.39657 
H  0.6365  -5.57629  -2.46119 
C  1.1282  -3.79549  -1.36126 
H  0.3331  -3.95322  -0.64217 
C  1.53542  -2.39318  1.53292 
C  2.21419  -3.62301  1.64776 
H  2.72642  -4.06711  0.80166 
C  2.27337  -4.29462  2.86992 
H  2.80474  -5.2348  2.94342 
C  1.66542  -3.741  3.99836 
H  1.73388  -4.24827  4.95085 
C  1.00917  -2.51159  3.90097 
H  0.56061  -2.06827  4.77799 
C  0.9396  -1.84321  2.67471 
H  0.45439  -0.87352  2.61605 
O  1.57995  1.4338  0.0 
P  1.57995  -1.4338  0.0 
Cl  -1.58392  1.58392  0.0 
Cl  -1.58392  -1.58392  0.0 
21

Ru  0.0  0.0  0.0 
O  1.36675  -1.29089  0.0 
O  1.36675  1.29089  0.0 
C  2.531  -0.68701  -0.49889 
H  2.44142  -0.54504  -1.59343 
H  3.46923  -1.21905  -0.24944 
C  1.33008  -2.70797  -0.20913 
H  0.40813  -3.07384  0.27436 
C  2.59175  0.65553  0.1726 
H  2.78074  0.53155  1.26113 
H  3.40711  1.25624  -0.27951 
C  2.41572  -3.5016  0.52991 
H  3.41988  -3.35799  0.08793 
H  2.1764  -4.58498  0.47057 
H  2.42697  -3.20898  1.60209 
C  1.21536  -3.07622  -1.69787 
H  0.36732  -2.52338  -2.15567 
H  1.01673  -4.165  -1.80553 
H  2.14595  -2.82867  -2.24157 
Cl  -1.58392  1.58392  0.0 
Cl  -1.58392  -1.58392  0.0 
143

Ru  0.0  0.0  0.0 
N  1.62042  1.10265  0.0 
N  1.62042  -1.10265  0.0 
C  2.51987  -0.0078  -0.22749 
C  4.00608  0.03675  0.27676 
C  4.69858  -1.32457  0.10349 
H  5.78723  -1.24318  0.31086 
H  4.57485  -1.71247  -0.92116 
H  4.31254  -2.06299  0.81368 
C  4.76033  1.02208  -0.63775 
H  4.4228  2.06183  -0.48463 
H  4.60539  0.74225  -1.70206 
H  5.85073  1.01402  -0.43951 
C  4.1598  0.48606  1.7298 
H  3.58742  -0.15647  2.42609 
H  3.82647  1.524  1.83111 
H  5.23085  0.46871  2.02895 
C  1.89134  2.46952  -0.28691 
C  2.00942  3.42709  0.75052 
C  2.47027  4.72476  0.4309 
H  2.57024  5.44735  1.21753 
C  2.85038  5.07082  -0.88021 
C  2.66457  4.11979  -1.88837 
H  2.92156  4.40383  -2.89501 
C  2.20114  2.83521  -1.63032 
C  1.67307  3.06011  2.19363 
H  1.69179  1.95604  2.31514 
C  0.24917  3.4981  2.49357 
H  0.13836  4.59381  2.36671 
H  -0.03963  3.1945  3.52002 
H  -0.43344  2.9975  1.79363 
C  2.6393  3.65632  3.23642 
H  3.69196  3.37684  3.03272 
H  2.36713  3.28451  4.24654 
H  2.5714  4.76251  3.27034 
C  2.0716  1.84956  -2.79354 
H  2.3361  0.85146  -2.44947 
C  3.05108  2.08271  -3.95716 
H  2.99954  1.22919  -4.66546 
H  4.0919  2.14959  -3.57234 
H  2.80894  3.00247  -4.52632 
C  0.6288  1.8335  -3.28795 
H  -0.05981  1.60491  -2.44936 
H  0.50023  1.05836  -4.0713 
H  0.36451  2.82903  -3.70684 
C  3.44978  6.43816  -1.30238 
C  4.9118  6.27415  -1.81348 
C  5.63608  7.42174  -2.21149 
H  5.17419  8.40008  -2.16417 
C  6.9498  7.32196  -2.67582 
H  7.4832  8.21247  -2.98054 
C  7.57487  6.07807  -2.75103 
H  8.59024  6.0001  -3.11611 
C  6.89374  4.93335  -2.34771 
H  7.37914  3.9666  -2.3979 
C  5.58464  5.02396  -1.8748 
H  5.12685  4.10084  -1.56898 
C  2.50767  6.91953  -2.43999 
C  2.94859  7.15064  -3.76639 
H  3.98339  7.05588  -4.05904 
C  2.05077  7.48079  -4.77691 
H  2.41433  7.64258  -5.78499 
C  0.69064  7.5762  -4.50015 
H  -0.00315  7.81301  -5.29342 
C  0.22491  7.35127  -3.20509 
H  -0.83302  7.41079  -2.99301 
C  1.11543  7.03025  -2.18518 
H  0.73086  6.83158  -1.1916 
C  3.54768  7.42305  -0.11587 
C  2.81417  8.63115  -0.04613 
H  2.11941  8.92748  -0.81631 
C  2.96966  9.4979  1.03855 
H  2.39512  10.41399  1.08057 
C  3.86692  9.19243  2.06124 
H  3.98942  9.87044  2.89434 
C  4.61005  8.0159  2.00542 
H  5.31737  7.78141  2.79213 
C  4.45334  7.14018  0.93237 
H  5.05077  6.23608  0.90964 
C  1.89674  -2.49162  -0.12282 
C  2.09474  -3.04036  -1.41353 
C  2.49431  -4.3746  -1.53111 
H  2.64544  -4.74053  -2.52648 
C  2.70491  -5.20128  -0.41024 
C  2.50127  -4.63565  0.85995 
H  2.68718  -5.25627  1.72502 
C  2.113  -3.29826  1.02533 
C  1.87236  -2.21551  -2.68153 
H  1.59112  -1.18495  -2.41957 
C  3.12512  -2.14592  -3.57262 
H  3.98505  -1.71133  -3.02983 
H  2.92584  -1.4971  -4.45141 
H  3.41466  -3.14972  -3.94805 
C  0.69039  -2.77852  -3.46738 
H  0.48722  -2.13633  -4.3501 
H  -0.21293  -2.78526  -2.82055 
H  0.89622  -3.81235  -3.81384 
C  1.9612  -2.74334  2.43492 
H  1.85362  -1.64225  2.3956 
C  0.67968  -3.29609  3.04706 
H  -0.1832  -2.99829  2.41413 
H  0.53389  -2.87846  4.06469 
H  0.71786  -4.40444  3.10642 
C  3.16853  -3.07001  3.34586 
H  3.25377  -4.16001  3.54169 
H  3.04295  -2.57424  4.33098 
H  4.12737  -2.72478  2.91295 
C  3.21596  -6.66896  -0.53211 
C  3.53153  -6.98931  -2.01935 
C  2.46132  -7.17976  -2.92723 
H  1.43447  -7.09808  -2.58813 
C  2.70135  -7.48603  -4.26674 
H  1.86838  -7.63452  -4.93727 
C  4.01022  -7.59492  -4.73285 
H  4.19472  -7.8263  -5.77179 
C  5.07983  -7.4061  -3.86288 
H  6.09714  -7.48706  -4.22348 
C  4.84995  -7.11737  -2.52319 
H  5.71872  -6.98182  -1.89393 
C  4.51688  -6.81315  0.32099 
C  5.46221  -5.7579  0.36431 
H  5.28472  -4.83252  -0.16854 
C  6.65033  -5.87964  1.09055 
H  7.35628  -5.06079  1.11166 
C  6.9356  -7.05818  1.77795 
H  7.8622  -7.15856  2.32725 
C  6.02747  -8.11062  1.75483 
H  6.24973  -9.03051  2.28232 
C  4.83144  -7.99206  1.04828 
H  4.18947  -8.85109  1.07915 
C  2.13771  -7.68952  -0.07015 
C  2.27876  -9.05467  -0.42121 
H  3.13596  -9.3864  -0.99545 
C  1.32706  -10.00367  -0.05313 
H  1.45984  -11.03464  -0.33639 
C  0.20554  -9.61746  0.68498 
H  -0.52489  -10.36042  0.97082 
C  0.02873  -8.27942  1.03457 
H  -0.83676  -7.98165  1.60927 
C  0.97326  -7.32365  0.65842 
H  0.75739  -6.31858  0.96091 
Cl  -1.58392  1.58392  0.0 
Cl  -1.58392  -1.58392  0.0 
20

Ru  0.0  0.0  0.0 
O  1.31927  1.39554  0.0 
O  3.29051  2.42969  -0.1315 
O  2.20405  -4.27926  0.39449 
N  2.63417  1.28876  -0.06084 
O  4.54572  -4.20499  0.29633 
N  1.31927  -1.39554  0.0 
N  3.36281  -3.63195  0.23342 
C  2.70855  -1.15148  0.01843 
N  5.49285  -3.28407  0.19578 
C  3.30382  0.16152  -0.04855 
C  4.93548  -2.12985  0.08783 
C  3.58228  -2.25233  0.10509 
C  5.55597  -0.90701  -0.03054 
H  6.63546  -0.82156  -0.05614 
C  4.7418  0.23187  -0.09545 
H  5.25635  1.18109  -0.17242 
H  0.96314  -2.35675  0.00273 
Cl  -1.58392  1.58392  0.0 
Cl  -1.58392  -1.58392  0.0 
41

Ru  0.0  0.0  0.0 
S  1.81425  1.38091  0.0 
S  1.81425  -1.38091  0.0 
C  2.83993  -0.00367  0.5712 
N  4.1559  -0.03021  -0.11915 
C  5.04621  1.16497  0.03782 
C  4.87593  1.92368  1.38001 
C  5.86159  3.09854  1.45203 
C  5.68054  4.03602  0.24832 
C  5.88991  3.267  -1.0638 
C  4.88954  2.10953  -1.16812 
C  4.87125  -1.33838  -0.02758 
C  5.76673  -1.49845  1.22906 
C  6.43262  -2.88239  1.21007 
C  7.23696  -3.07431  -0.08664 
C  6.31718  -2.95351  -1.30857 
C  5.64842  -1.57762  -1.33209 
H  6.10648  0.85437  -0.0179 
H  5.06146  1.23979  2.23421 
H  3.85371  2.33544  1.48174 
H  5.70068  3.66386  2.39562 
H  6.90242  2.70715  1.45821 
H  4.65819  4.47389  0.26252 
H  6.41789  4.86444  0.30964 
H  6.92755  2.86464  -1.09364 
H  5.75822  3.94735  -1.93125 
H  3.86801  2.52654  -1.22647 
H  5.08579  1.5427  -2.10463 
H  4.15719  -2.17969  0.02428 
H  5.15764  -1.38947  2.14897 
H  6.58026  -0.74723  1.26285 
H  7.10463  -2.98043  2.08855 
H  5.65193  -3.67235  1.28159 
H  8.03475  -2.30173  -0.14772 
H  7.71273  -4.07593  -0.08532 
H  5.53799  -3.74578  -1.26599 
H  6.89882  -3.09007  -2.24573 
H  6.42139  -0.79696  -1.48044 
H  4.94105  -1.53207  -2.19052 
Cl  -1.58392  1.58392  0.0 
Cl  -1.58392  -1.58392  0.0 
34

Ru  0.0  0.0  0.0 
C  -0.1847  3.48075  1.59023 
H  0.06036  2.63591  2.22605 
C  -1.22874  4.34672  1.95132 
H  -1.77881  4.18  2.86974 
C  -1.59066  5.40835  1.11182 
H  -2.40356  6.06815  1.37947 
C  -0.91262  5.61296  -0.09089 
H  -1.17792  6.42708  -0.74901 
C  0.09298  4.73912  -0.46833 
H  0.589  4.88247  -1.42464 
C  0.45267  3.66121  0.34769 
C  1.45414  2.73423  -0.26245 
C  2.86644  3.31939  -0.44663 
H  3.55974  2.98988  0.35699 
H  2.85352  4.4293  -0.45987 
H  3.25143  2.97144  -1.42803 
C  2.60308  -0.6759  -0.04497 
C  3.83463  -1.45627  -0.20602 
C  3.76065  -2.8004  -0.6056 
H  2.80102  -3.27377  -0.79237 
C  4.92745  -3.54486  -0.79304 
H  4.85488  -4.57319  -1.11363 
C  6.17109  -2.94806  -0.56992 
C  6.25416  -1.61067  -0.17297 
H  7.20749  -1.1436  0.00338 
C  5.08874  -0.85922  -0.00045 
H  5.15982  0.17794  0.29815 
N  1.41646  1.29679  0.0 
N  2.61862  0.62119  -0.02341 
O  1.41646  -1.29679  0.0 
Br  7.76505  -3.96693  -0.80681 
Cl  -1.58392  1.58392  0.0 
Cl  -1.58392  -1.58392  0.0 
15

Ru  0.0  0.0  0.0 
O  1.36071  1.29726  0.0 
O  1.36071  -1.29726  0.0 
C  1.32788  -2.60166  -0.55161 
H  1.05549  -2.56191  -1.631 
H  0.55515  -3.20018  -0.02868 
H  2.27554  -3.16063  -0.39473 
C  2.51883  -0.66191  -0.48372 
H  2.42868  -0.48862  -1.58215 
H  3.45283  -1.22083  -0.24366 
C  2.57581  0.65848  0.20862 
H  2.73362  0.52135  1.29876 
H  3.40399  1.26387  -0.21663 
Cl  -1.58392  1.58392  0.0 
Cl  -1.58392  -1.58392  0.0 
26

Ru  0.0  0.0  0.0 
O  1.36894  1.34685  0.0 
N  1.36894  -1.34685  0.0 
C  2.60021  0.77972  0.00268 
C  1.30201  -2.77361  0.01726 
H  0.35887  -3.30131  0.03357 
C  2.62866  -0.69354  -0.01604 
C  3.75943  1.4552  0.04904 
C  5.12916  -0.67546  0.02919 
C  5.06275  0.68972  0.0538 
H  5.98415  1.26424  0.07538 
C  3.78278  -2.82045  0.01714 
H  4.67308  -3.43928  0.0311 
C  3.87247  -1.47377  0.00917 
C  2.44647  -3.49151  0.02086 
H  2.40061  -4.57593  0.03645 
C  3.75791  2.9519  0.10081 
H  3.33249  3.35965  -0.84105 
H  4.78626  3.34685  0.23138 
H  3.14046  3.29568  0.95826 
C  6.4551  -1.37942  0.03129 
H  7.30341  -0.665  0.00838 
H  6.52132  -2.03408  -0.86317 
H  6.53245  -1.99931  0.94843 
Cl  -1.58392  1.58392  0.0 
Cl  -1.58392  -1.58392  0.0 
44

Ru  0.0  0.0  0.0 
S  1.48788  -2.29457  1.49429 
O  1.96565  -3.71215  1.14968 
O  0.058  -2.48501  2.0128 
N  1.40201  1.36966  0.0 
N  2.66169  1.24629  -0.49525 
N  1.40201  -1.36966  0.0 
F  -0.24643  1.58965  2.32279 
F  2.49609  3.84466  -0.93387 
C  1.10266  2.6359  0.61777 
C  0.26226  2.70929  1.75455 
C  -0.10375  3.93574  2.30828 
H  -0.79293  3.96273  3.14427 
C  0.40389  5.11582  1.77676 
H  0.11034  6.06305  2.20633 
C  1.29907  5.06351  0.70296 
H  1.70006  5.98617  0.30965 
C  1.65304  3.84156  0.12648 
C  3.23554  0.17718  -0.84113 
C  4.60738  0.34842  -1.39914 
H  5.05779  1.35945  -1.50267 
C  5.25588  -0.87226  -1.93892 
H  6.21092  -0.76951  -2.43996 
C  4.66672  -2.06938  -1.81049 
H  5.15885  -2.93993  -2.22136 
C  3.35938  -2.22441  -1.12147 
H  2.95808  -3.22668  -1.03086 
C  2.65796  -1.16667  -0.65411 
C  2.49745  -1.35658  2.60765 
C  3.87121  -1.57012  2.6357 
H  4.31051  -2.34471  2.02163 
C  4.67957  -0.77054  3.43979 
H  5.74533  -0.95012  3.44999 
C  4.11303  0.26027  4.20811 
C  2.72865  0.48096  4.16313 
H  2.27568  1.28167  4.73762 
C  1.9245  -0.33257  3.36634 
H  0.861  -0.16075  3.32578 
C  4.97342  1.12368  5.07056 
H  6.03742  0.81227  5.00998 
H  4.63545  1.0328  6.12366 
H  4.88958  2.18037  4.7419 
Cl  -1.58392  1.58392  0.0 
Cl  -1.58392  -1.58392  0.0 
