75

Ni  0.0  0.0  0.0 
P  1.2912604249337147  -1.5533018106601182  -1.3737442308093602e-15 
N  1.2912604249337158  1.5533018106601177  2.538646007965925e-16 
C  1.025545437123336  2.673809453189893  0.7399774917423533 
H  0.23370072307202516  2.6975172733619104  1.2653666314204692 
C  0.6038420059886113  -3.4057985245969484  1.9455852441227885 
H  0.1647943545387227  -3.873461981894593  1.2444652112719528 
C  2.0284448852875814  -1.6095952363162929  2.6676459157168377 
H  2.549928758453585  -0.8390651263363406  2.473316145372542 
C  1.8670420451656735  3.771992641603913  0.7521180575474865 
H  1.658589341143401  4.5286428508124645  1.2865712464148213 
C  6.25032857616317  -5.933316907087949  -3.1651955131597487 
H  6.821563495060855  -6.659911489193252  -3.3834466086603285 
C  3.0046657239297385  3.759522550558459  -0.014722031613660607 
H  3.5662010825590915  4.525443044460673  -0.05584693926816542 
C  4.399553433172374  -4.4900521341927995  -3.763412685604125 
H  3.7199153661282383  -4.2394849795491085  -4.378711742029755 
C  3.3276197021389926  2.606309731448473  -0.7369104985661681 
H  4.132960508291392  2.5610602863518164  -1.2393818745312697 
C  2.4515409642832457  1.5278151764926238  -0.7065177361436922 
C  2.7738777572771918  0.26725845688905464  -1.455320599749781 
H  3.6021808791801737  0.3985385781124635  -1.9825892390764006 
H  2.0391648331201937  0.0580622415946774  -2.0839156622369073 
C  2.9671692232722044  -0.9140352636276331  -0.47450787295564145 
H  3.38819529134038  -0.544291990904654  0.3537917179431879 
C  3.8564078081577415  -2.0453003873406033  -0.9627546742984092 
C  4.871588665356681  -2.478762139834064  -0.07733123531446343 
H  4.980364814967958  -2.0423436502992365  0.7600663711234199 
C  5.692980582544741  -3.5042962241103366  -0.40570322006004833 
H  6.365149013462927  -3.777970130934241  0.20665942021183217 
C  5.568567017458714  -4.171228946322092  -1.6317476967679052 
C  6.420507211967806  -5.264704929768075  -1.9915927031341158 
H  7.1170986805874  -5.527694509253852  -1.4009236190199095 
C  1.3522436164605607  -2.278642515388446  1.6502516694175675 
C  5.224766232809168  -5.548580237820805  -4.056733771012712 
H  5.104587173952207  -6.02737066341359  -4.86950836594847 
C  1.1368064156425668  -3.1880458427428917  4.278048415876569 
H  1.0371200000050445  -3.476583055488129  5.177869484422189 
C  4.5526240071166875  -3.7632506444551264  -2.5431644592552747 
C  3.6810803457132177  -2.670962659366792  -2.189537390298189 
C  2.5232735095709833  -2.2956711055944683  -3.0714468413471474 
C  2.7293832062050094  -1.6873370950917532  -4.363398479226516 
C  4.0182231246065605  -1.4120683565468024  -4.884677364579243 
H  4.788964490011428  -1.6625916111579742  -4.388231650978172 
C  4.166579112496976  -0.7874437096549834  -6.099989493767611 
H  5.0369839078316545  -0.6072575873707017  -6.4330360124321135 
C  3.0363538662675085  -0.41014702077071624  -6.8595990456707785 
H  3.145178317736171  0.02416158259935547  -7.697586644505773 
C  1.766467099742336  -0.6786133626870888  -6.3733235235001775 
H  1.0053786821928308  -0.4323167238919438  -6.885094259660621 
C  1.5950174877896701  -1.306070971576248  -5.140864124733461 
C  0.2932055457150069  -1.531187631197855  -4.615595805650118 
H  -0.4695288873536154  -1.2993721478649833  -5.131753655826435 
C  0.1266546501162149  -2.0872458995088494  -3.35597693812776 
H  -0.7474813284056243  -2.2268251676923208  -3.013811117293703 
C  1.24778604238139  -2.4466843558142135  -2.5799623458639447 
C  1.0045343928699146  -2.9435469518038575  -1.1674846979996008 
H  1.620200025047191  -3.6910860533687577  -0.9613754527258543 
H  0.07406116684370256  -3.2720043748871266  -1.079840206616085 
C  1.9300465134605225  -2.092059809432006  3.989120514833349 
H  2.4113619791278396  -1.6621831361303565  4.685910324073237 
C  0.4867968930158373  -3.86629245120611  3.2575598570956483 
H  -0.03400815870576701  -4.636844025140957  3.4510128488217777 
Br  -1.5839191898578664  1.5839191898578664  0.0 
C  -1.2937473829822488  -1.2398794889499034  -0.459800567 
C  -1.601562203225019  -1.4938654694550033  -1.7919791134 
H  -1.1309417375171225  -1.0428217585005106  -2.480879663 
C  -2.60218398542082  -2.411889969420291  -2.121542410022 
H  -2.8231586547736818  -2.5626138747145775  -3.032700502 
C  -3.2683208079706407  -3.09759503004543  -1.14306436557 
H  -3.9596020908062854  -3.707191723557817  -1.368328076 
C  -2.9347449854640226  -2.896087320001541  0.14198826503 
H  -3.3668350933519986  -3.405606940434718  0.81710224434 
C  -1.9675509241539992  -1.9516175659140573  0.5112421903 
H  -1.7755298364628027  -1.8022912010877177  1.4301324877 
