45

Co  0.0  0.0  0.0 
O  1.1659179923991227  1.3726744825340056  0.0 
C  2.5155520396235618  1.370328955578441  -0.4483519232432342 
C  3.177666008763604  0.10498952725773458  -0.4884232721931502 
C  4.507125095675804  0.16913633782381465  -0.9367804210386071 
C  5.119988136305677  1.3412306365609097  -1.3477957714793194 
C  4.43015272006463  2.5334090632910495  -1.3109615843866635 
C  3.117258156791728  2.5797109584662774  -0.8407860956256017 
C  2.604678358879046  -1.1043501604266508  0.024513588318177404 
C  1.1659179923991227  -1.3726744825340056  0.0 
C  0.779218102998107  -2.6039122060473305  0.5168093688537133 
C  1.6592495727883807  -3.582806683286738  0.9642304843690321 
C  2.9959967481510157  -3.3396392031250803  0.9437457155906892 
C  3.479890905395449  -2.134544691608932  0.4797967928649739 
C  2.363728302003871  3.8619164867215154  -0.7895630416839252 
C  2.417249331035654  4.74178967615416  -1.8649507856949146 
C  1.8106053221833502  5.977574471882653  -1.7982514965689855 
C  1.1488388900409183  6.346433055212118  -0.701550158558639 
C  1.1108369160929288  5.488573092793221  0.426386579407961 
C  1.6901138921739556  4.2604193815886156  0.3898173760151626 
H  5.020998892304693  -0.6565756932672286  -0.9648191950797439 
H  6.031360238412855  1.3119852469869073  -1.671261687287159 
H  4.863844698880383  3.3520535192771117  -1.6066179764943809 
H  -0.18779343301343365  -2.8032487956624292  0.5557643847213405 
H  1.3243351958147942  -4.437369957337359  1.275125114011106 
H  3.6137759540697934  -4.0122828864953135  1.2534157463597269 
H  4.457407969786855  -1.973853185496858  0.46369962891970173 
H  2.8995436542244795  4.453506244768819  -2.6797948069704836 
H  1.8392113712057454  6.585706188922362  -2.5630469258765087 
H  0.7171921752655418  7.207967035079555  -0.6511224364466728 
H  0.6520931570023594  5.79066354852494  1.2449865305753647 
H  1.6549656075169406  3.6537174536394526  1.15449091989415 
C  -1.3152186130069785  1.3152186130069785  0.0 
H  -0.6495199803430409  1.6962841713332992  0.5951204085954485 
H  -0.9599851374477317  1.3834789675349293  -0.8990352394883178 
C  -2.465649396204062  2.1509445234565856  0.0653253830889467 
H  -3.1804531296608394  1.7503927465423887  -0.4351780800830183 
H  -2.257170981584706  3.0110827177451807  -0.30712371056514465 
H  -2.734740998366073  2.255336496994069  0.9808912384520841 
N  -1.2869343417595165  -1.2869343417595165  0.0 
C  -2.1044713900942384  -2.083437650388871  0.019039798912822647 
C  -3.1421423650049274  -3.1105456976224826  0.06374122099158464 
H  -3.9552484082446737  -2.7460617020104126  -0.4061343363527642 
H  -3.219454605883226  -3.616391030609212  0.9511091753971513 
H  -2.9463244206557406  -3.8112051092518326  -0.6277558589487948 
