49

Ni  0.0  0.0  0.0 
P  1.4274310000837163  1.4291748458463713  -1.9322549502024548e-17 
N  1.4274310000837165  -1.4291748458463718  1.3877787807814457e-16 
C  2.968441449004998  0.45129836413964686  0.18167386394402876 
H  3.6704097642874656  0.8207385145414801  -0.41112188470013356 
H  3.2902537229922633  0.5046573847112961  1.116245688489792 
C  2.6964793540077627  -0.9780961749100531  -0.1817793113339092 
C  3.693366350945431  -1.8161877656493668  -0.6685015225269842 
H  4.574566807891624  -1.4857068161891278  -0.7940576323811211 
C  3.395713028152098  -3.1323065564793806  -0.9686719538726241 
H  4.067241451810849  -3.711332609453277  -1.3104030414193473 
C  2.1126580944734763  -3.5963997511837738  -0.7639438322281776 
H  1.8873565909710215  -4.499256482639782  -0.9558275860587305 
C  1.1610503057715313  -2.7233284166116514  -0.27707731948544334 
H  0.28063045279734244  -3.0481735965763592  -0.13054363208688743 
C  1.3066089937232204  1.859933287886693  -1.7650203447524644 
C  0.3049733373451087  2.752819000022416  -2.153193729898706 
H  -0.2952102455112988  3.109010855399306  -1.5087961359919426 
C  0.19169101866314797  3.117528945425437  -3.4927965747740926 
H  -0.47899946727512566  3.736256984594307  -3.758241664421889 
C  1.0507339563191906  2.5836014471786437  -4.441552453743611 
H  0.9644415078908537  2.831230371679069  -5.355559291297376 
C  2.0273375772632276  1.6962564706799999  -4.058110606468635 
H  2.6141014314903805  1.3308784124825417  -4.709952967749633 
C  2.163698781425122  1.3259534937292785  -2.720384738713599 
H  2.8399993694310757  0.7107646856171952  -2.4636878259225647 
C  1.7750388274613134  3.030474278628303  0.7834208415137486 
C  0.7881727947776569  3.673414967565376  1.5198093015295078 
H  -0.04933541304353062  3.2488036670210945  1.6603695565173642 
C  1.0214232977027649  4.939398290220698  2.0518866357994203 
H  0.34375724530814256  5.380253082642456  2.55170520631344 
C  2.240781922265903  5.549996806235866  1.850414436864661 
H  2.40166678011476  6.413956393537985  2.212129012218913 
C  3.2264824567815573  4.917983289747557  1.1279769093014371 
H  4.065902668342032  5.343859341071111  1.0005511374464364 
C  3.0019988621081404  3.657399201498318  0.5816065841781476 
H  3.680899666432607  3.228490351205067  0.07447980907379984 
Br  -1.5839191898578664  1.5839191898578664  0.0 
C  -1.29374738  -1.23987949  -0.45980057 
C  -1.6015622  -1.49386547  -1.79197911 
H  -1.13094174  -1.04282176  -2.48087966 
C  -2.60218399  -2.41188997  -2.12154241 
H  -2.82315865  -2.56261387  -3.0327005 
C  -3.26832081  -3.09759503  -1.14306437 
H  -3.95960209  -3.70719172  -1.36832808 
C  -2.93474499  -2.89608732  0.14198827 
H  -3.36683509  -3.40560694  0.81710224 
C  -1.96755092  -1.95161757  0.51124219 
H  -1.77552984  -1.8022912  1.43013249 
