57

Pd  0.0  0.0  0.0 
C  0.42873  2.16672  0.0 
C  -0.42036  3.26707  0.13651 
H  -1.49686  3.13051  0.19464 
C  0.1429  4.55666  0.20653 
H  -0.49618  5.4263  0.29967 
C  1.52561  4.73835  0.15877 
H  1.94858  5.72786  0.25074 
C  2.37305  3.65375  -0.03712 
H  3.43843  3.81023  -0.06977 
C  1.82676  2.36813  -0.15479 
C  2.67895  1.14153  -0.46619 
C  4.14085  1.14529  0.02888 
H  4.22515  1.25536  1.13233 
H  4.7112  1.95219  -0.47185 
H  4.63409  0.19196  -0.26239 
C  1.81361  -2.28615  0.14698 
N  1.95388  -0.01073  0.0 
N  2.55045  -1.23283  0.15152 
N  2.41215  -3.56718  0.15265 
H  3.43719  -3.66703  0.13686 
H  1.82294  -4.40974  0.08589 
S  0.01739  -2.15599  0.0 
O  -4.18953  -0.06393  -4.18545 
N  -2.02239  0.0  0.02239 
N  0.02239  0.0  -2.02239 
C  -3.08192  0.01158  1.01228 
H  -2.84657  0.11619  2.0904 
C  -4.5031  0.04899  0.40144 
H  -5.35888  0.10928  1.06309 
C  -4.71659  0.01325  -0.9455 
H  -5.71938  0.04274  -1.36107 
C  -3.54486  -0.02271  -1.85411 
C  -3.33046  -0.03783  -3.32776 
C  -1.85335  -0.02405  -3.53404 
C  -0.95533  0.02661  -4.70929 
H  -1.37318  0.03122  -5.7125 
C  0.39152  0.07789  -4.50349 
H  1.05139  0.12764  -5.36257 
C  1.00592  0.07796  -3.08641 
H  2.08882  0.11611  -2.86041 
C  -1.33565  -0.02423  -2.35097 
C  -2.34498  -0.0238  -1.33861 
N  0.63489  1.63017  3.2999 
N  0.96263  0.99925  2.13929 
N  0.0  0.0  1.91 
C  -0.29956  -0.37852  3.26441 
C  0.11177  0.66095  4.0834 
C  0.12161  0.66175  5.45099 
C  -0.29263  -0.50321  6.07041 
C  -0.73306  -1.60487  5.28166 
C  -0.75874  -1.5467  3.8555 
H  1.09111  2.50972  3.60713 
H  0.50545  1.53314  5.99286 
H  -0.24396  -0.54584  7.14735 
H  -1.01884  -2.50603  5.79633 
H  -1.04215  -2.39922  3.26153 
