74

Pd  0.0  0.0  0.0 
P  1.4946182338644212  -1.5027362825858708  2.8820293971805663e-15 
P  3.0078281991893743  0.991419710340871  -0.2653371888539666 
N  1.4946182338644207  1.5027362825858699  -2.9505442030565345e-16 
C  1.1874194592949459  -2.62224972582628  1.392041390658721 
C  1.0433838406443128  -2.077216921673433  2.6755374689375966 
H  1.1458788246173204  -1.1415069862079932  2.8026891300814163 
C  0.7547884422746609  -2.885193470233688  3.7562816259963157 
H  0.6605961543584418  -2.5093639540739052  4.623795457402057 
C  0.6038703555237566  -4.247308312817878  3.5659116265129254 
H  0.39293227163396516  -4.805161656557915  4.305189674099214 
C  0.7559749537653816  -4.801524305105541  2.317979302592115 
H  0.6665996733928338  -5.740644366525469  2.202561541840336 
C  1.0419211809356708  -3.9900000182882254  1.2182929850120696 
H  1.136750976118464  -4.373597354480885  0.35429263569993424 
C  1.8925177172737115  -2.504863324070908  -1.448035363458758 
C  3.044941346697765  -3.3073179955751817  -1.4454145761543242 
H  3.584179645016713  -3.361510984021474  -0.665177133045273 
C  3.3956092635775565  -4.01932202276141  -2.5776282562261525 
H  4.177861569227458  -4.556872166696156  -2.5736391383836232 
C  2.6120679389826096  -3.9522992482618906  -3.716428954483068 
H  2.859838385155496  -4.4403787925568405  -4.49255345122582 
C  1.4690241000978672  -3.174877139314279  -3.7246049502701166 
H  0.9280374864087818  -3.1369571990956646  -4.505019296590766 
C  1.1072024829144158  -2.4476921217810665  -2.590756491430047 
H  0.3226371117331015  -1.911122406027282  -2.6015938563789045 
C  3.0567775669240738  -0.6495812081679876  0.47375711828922074 
H  3.12578008457443  -0.5813084971215388  1.45958839162371 
H  3.840254744545223  -1.1544500888836877  0.1374175645170044 
C  3.4846501151163967  0.8026958715100246  -1.99500026678237 
C  2.4909194480544925  0.69474496762897  -2.961150821143345 
H  1.5769792019092208  0.7851437765046305  -2.7159794487732967 
C  2.8323881400282334  0.4573453792021069  -4.276502921463463 
H  2.1522741395689704  0.3572940982539415  -4.932493948505735 
C  4.159100500669476  0.36647291103689084  -4.641050033166882 
H  4.393408835352841  0.22638623885130005  -5.550347772399679 
C  5.148513792014692  0.4774103369391456  -3.6828229220686337 
H  6.059848737840831  0.409737937477939  -3.939260736883997 
C  4.824873542744044  0.6866120569235944  -2.349067918551262 
H  5.5068189788301645  0.7501027878692939  -1.6903654293459014 
C  4.2444403318824495  2.045311400022293  0.5019847121085654 
C  4.6646868900124305  3.2171494599710266  -0.15103215722599433 
H  4.320607227876405  3.4318753927506283  -1.0101782215807793 
C  5.577209804887936  4.055792942932241  0.45651090158863444 
H  5.839675743425126  4.859863653144132  0.023422776506514656 
C  6.106756065259763  3.7357800567240984  1.6804641730769956 
H  6.752033934839119  4.307548007599337  2.0809845613009395 
C  5.709271162261375  2.593244729736749  2.3296408735787093 
H  6.075092276243273  2.3818094042694926  3.180934474934645 
C  4.779121211873  1.7457443567448394  1.7524320053419122 
H  4.504756451478777  0.9596002616763862  2.209444062122502 
C  1.187589064963161  2.888669276375145  -0.09779716851782343 
C  1.5049756379837438  3.662708323331831  -1.1994536245206282 
H  1.9510036245496334  3.2659597108779814  -1.937700706273024 
C  1.1812488172727131  5.015584136313227  -1.2429620168404665 
H  1.4239816269084051  5.537992448468384  -1.998511670084761 
C  0.512966738638206  5.592478835034567  -0.19616035942718116 
H  0.290172367926518  6.515906262774673  -0.22772702026537686 
C  0.16177467081682506  4.836300010999907  0.903531164401629 
H  -0.31536077033313603  5.237279003110964  1.6217360367634475 
C  0.5022081224521867  3.492566896680418  0.96457436622529 
H  0.2698910894433637  2.9793169745631447  1.7298751983302871 
Br  -1.654629867976521  1.654629867976521  0.0 
C  -1.352040782177733  -1.3199206589279684  -0.4819701001757076 
C  -1.6380700204479186  -1.599217458033982  -1.8139382277462257 
H  -1.1579680913617836  -1.159339363685303  -2.503515938957912 
C  -2.63068216563725  -2.52632649780156  -2.142289956238523 
H  -2.8368222554424674  -2.694399528648736  -3.0538898079700485 
C  -3.3101544432602585  -3.1961573187854975  -1.1619874135498987 
H  -3.9960123560788676  -3.811990145619169  -1.3868663427944008 
C  -2.9974710358883443  -2.9701089012107795  0.12423560353005347 
H  -3.438659168087169  -3.468581175155742  0.8017084178296768 
C  -2.0389854250767776  -2.015940632791841  0.4912562833419403 
H  -1.8619130127668426  -1.8492165108145995  1.4101568590026907 
