58

Fe  0.0  0.0  0.0 
S  0.15037113275978553  2.26745751506527  -1.4453843704485195e-14 
S  0.21828588196668652  -2.294737307258756  1.5969863386556084e-14 
N  2.031342985273528  0.027279792193485863  -1.5229585759747986e-15 
C  2.690954262081191  1.2207899088142151  0.028978182001960555 
C  4.075100326177632  1.2582380208441615  0.03408329235527295 
H  4.527001923108681  2.0941364430161276  0.050462074409621464 
C  4.7963687638706745  0.08604563906003193  0.016354477530584964 
H  5.745143551981585  0.10752674313494781  0.02292133467968784 
C  4.126013680982059  -1.1246860070997384  -0.012049638943069922 
H  4.60960797567897  -1.9423850204131188  -0.02203872112919042 
C  2.732175626012226  -1.1251679904485314  -0.026257531466606077 
C  1.8359969260033042  2.43846481821402  0.013071626599221077 
N  2.447307772118008  3.6087444250111655  0.01784460651131862 
H  3.2617726569167234  3.616659588610107  0.08320997666262832 
C  1.8748619076014268  4.919344696489917  -0.05029407998677638 
C  2.4947611484845336  5.899829981684177  0.7227945544336759 
H  3.21403512919267  5.671603268766481  1.3017477806852065 
C  2.053357519501203  7.2097320257609185  0.6406292865650927 
H  2.4687045642183785  7.8822431371590245  1.1681441086230073 
C  1.0116273153391695  7.545769144768059  -0.2076782793483035 
H  0.7228345911960352  8.448291357195092  -0.2745349062285158 
C  0.39177152105536783  6.557785232122008  -0.9599871471980698 
H  -0.3388281426069242  6.78391944103906  -1.5224040397377625 
C  0.8322869838919928  5.235508600422469  -0.8952443000011823 
H  0.41997043346410257  4.563221419676041  -1.4266341652105818 
C  1.965798647216731  -2.4016806377857165  -0.0657929277654006 
N  2.672323053175344  -3.4668428768865227  -0.16444326065173698 
C  2.075654899592399  -4.74608006102706  -0.22974572011619063 
C  2.3887898949438213  -5.549481585527433  -1.3239612542394898 
H  2.9288769628478306  -5.20594863509368  -2.0262790249452647 
C  1.9140723778017412  -6.850946727276069  -1.3902486869222013 
H  2.0999793664739377  -7.38224719731031  -2.1558025858112533 
C  1.1690482896040904  -7.384504010317087  -0.3480102479270044 
H  0.8559259710587492  -8.280636552428135  -0.39230573977865635 
C  0.8851878430447895  -6.5961534424362425  0.7591821694066317 
H  0.3908124332460392  -6.961042233205267  1.48375690299692 
C  1.319808762897155  -5.2770897866438515  0.8136473692529379 
H  1.1005291412520621  -4.735978971426134  1.563436608429921 
S  -1.9263141705166775  -2.7269853042355408e-15  -0.07368582948332225 
N  -0.07368582948332247  2.220446049250313e-16  -1.9263141705166777 
N  -2.3487133445666153  0.015988491710559168  -2.697050016151811 
C  -1.4510979550053376  0.02367577727406656  -1.7286296642056802 
C  0.3088069854998424  0.04743219966100271  -3.1698667761275545 
C  -0.5305152064865459  0.03340267169065689  -4.26865341619199 
C  -1.889262372215308  0.02870902632137166  -3.9396216406486384 
H  1.2636834926587368  0.08085225637195494  -3.3454773848204082 
H  -0.21459012306020842  0.014594157256623157  -5.210218066891472 
H  -2.5443109026264636  0.007646639398507075  -4.675989163468115 
O  0.0  0.0  1.79 
H  -0.7799479569982813  0.24263578966955565  1.870032293142445 
C  0.5735774855227774  -0.1556322990426242  3.059468233393839 
H  1.3213345491191553  0.456962080327498  3.138686919357805 
H  0.9218078765037079  -1.0576332765460363  3.1352997662819324 
C  -0.35805425298462806  0.08817027036050606  4.183278965215751 
H  0.1111624320511224  -0.00817205294049761  5.014497564156503 
H  -1.077629193871375  -0.5444937523304195  4.143579861442836 
H  -0.7122509393424786  0.9781632405020171  4.117888748273069 
