54

Pd  0.0  0.0  0.0 
P  1.47682973798607  1.5202216696916258  -1.7597714260673189e-15 
N  1.4768297379860698  -1.5202216696916262  4.440892098500626e-16 
C  1.5238647249797102  2.924049813670721  -1.1273266395196877 
C  0.6973394215977784  4.02595453151348  -0.9234063470883118 
C  0.6974278553817014  5.064101047554219  -1.8339491815623168 
C  1.4814091982448918  5.015566934752783  -2.9577539394882693 
C  2.3377611039486554  3.933354986455978  -3.157014980741096 
C  2.3445508646319877  2.8927190966117653  -2.232261816962792 
C  1.606792977447453  2.0157356924280645  1.7699313403802759 
C  2.929605649013599  2.7554309667548003  1.7304751991250544 
C  3.800876943514564  2.1680333340259255  0.947775133682911 
C  3.195433506765079  0.9307166633712083  0.3095572700838972 
C  2.880442656672577  -0.08233746926222163  1.4592588394976054 
C  1.854512953099074  0.6106939293848657  2.3737962820415817 
C  3.1304562907401916  3.942332539053801  2.6649920301089454 
C  5.265657434768546  2.464886446961451  0.7216067853617293 
C  2.500292532947574  -1.418377949735046  0.8618653862611177 
C  3.3235066789038505  -2.530193123599033  1.0987444462543554 
C  3.109992056469837  -3.714238267071516  0.4399591593618102 
C  2.1188600150310313  -3.8143784196789188  -0.47695466225347416 
C  1.28855328325815  -2.6970794567292957  -0.6564968817015736 
H  0.1460935615523351  4.063739715177946  -0.17612615085786182 
H  0.15865730269967027  5.806745349045468  -1.6827206028304162 
H  1.4415375107505355  5.701580014813371  -3.584217380179064 
H  2.8988143802341027  3.907815954370033  -3.8996275910632723 
H  2.9107730973281525  2.1688177919926623  -2.362826530309592 
H  0.8459757544610488  2.5139207302414155  2.1337214739822876 
H  3.6730284036277947  0.5680377948928761  -0.46549682018979777 
H  3.701282487078098  -0.21143062647251765  1.9785179458995126 
H  2.20173569534062  0.6873527892889222  3.2767568495463184 
H  1.0278147960677733  0.10314644444701959  2.401816412203919 
H  2.303636530065077  4.145075097027284  3.1074454723416074 
H  3.417026897263322  4.704950516493348  2.1568808533346338 
H  3.7996385836457156  3.723739858377562  3.3187217898847594 
H  5.622651157115892  1.8444470506520132  0.08074634992218321 
H  5.741865103629238  2.3763883037746805  1.5504367044469118 
H  5.362852918218599  3.3593024108358573  0.3890772805602349 
H  4.021192142854372  -2.4640015792958847  1.7104346479536372 
H  3.6489399027153633  -4.449379445677854  0.6225341481871953 
H  1.9922623458727624  -4.594063148314865  -0.9684649714999725 
H  0.5771821634332319  -2.7642947990949445  -1.251332865506968 
Br  -1.654629867976521  1.654629867976521  0.0 
C  -1.35204078  -1.31992066  -0.4819701 
C  -1.63807002  -1.59921746  -1.81393823 
H  -1.15796809  -1.15933936  -2.50351594 
C  -2.63068217  -2.5263265  -2.14228996 
H  -2.83682226  -2.69439953  -3.05388981 
C  -3.31015444  -3.19615732  -1.16198741 
H  -3.99601236  -3.81199015  -1.38686634 
C  -2.99747104  -2.9701089  0.1242356 
H  -3.43865917  -3.46858118  0.80170842 
C  -2.03898543  -2.01594063  0.49125628 
H  -1.86191301  -1.84921651  1.41015686 
