158

Fe  0.0  0.0  0.0 
C  0.675347373367861  2.910406247351003  0.39734939447592776 
C  0.20771502460406588  4.176852602556258  1.0942477556283863 
H  0.9924620240506521  4.776458249070477  1.2498248282574975 
O  -0.3058862853426592  3.740360553058534  2.3453372069252496 
C  -0.44082178779090864  4.799911697718581  3.2947965910110666 
H  -1.1886757843212625  5.394030740882849  3.033997602471706 
H  0.390025474976264  5.337843247763471  3.320889759055615 
C  -0.7034472568473691  4.206518099758066  4.625249833670254 
H  -1.5253899787941068  3.6739235301451254  4.589506495023784 
H  -0.8075445261037404  4.922489978437323  5.2872422259783995 
H  0.047479713844923284  3.6320223659106965  4.881606687446529 
C  -1.3548332002912313  4.103805356460895  -0.6338580845082779 
H  -2.26529182732164  4.459959775371891  -0.8424644323409195 
C  -0.5766202448929298  5.414432396795761  -2.4579792145852557 
H  -0.2935103385623792  6.122075778599567  -1.8271486468994613 
H  -1.4881812353002353  5.6262473721090585  -2.7797237514474733 
C  0.36666243835325696  5.345173662012832  -3.6052276737884683 
H  0.40458556166511034  6.217156379700299  -4.050695166174447 
H  0.0585815922532545  4.666377591364155  -4.241955258190325 
H  1.2600587965297851  5.105458501726506  -3.280275986416612 
C  -1.4724529059415672  2.6388376391581745  -0.26777890987034836 
C  -2.6907292780874594  2.0278746426201804  -0.386885534087304 
C  -2.909509757236166  0.6533084384814949  -0.2760794765668347 
C  -4.179016609639229  0.04332832571848259  -0.4208725141594372 
H  -5.003597457332192  0.4916183952930508  -0.5672055218466431 
C  -4.001749131446207  -1.2918203984305705  -0.3144502628289805 
H  -4.67552684240191  -1.9587096527183125  -0.38278128605294137 
C  -2.604301753925799  -1.509039451348022  -0.07852247703217925 
C  -2.026900476179455  -2.766942606134588  0.08078752778513562 
C  -0.6473081651922865  -2.964559511658597  0.19646926409731014 
C  -0.031201480516145304  -4.2370663719947474  0.393524113047564 
H  -0.4723645237524264  -5.065158710718304  0.5409746736767276 
C  1.305931126132272  -4.032414885574204  0.3288892823177439 
H  1.9825937828071891  -4.691898798350197  0.42645724761020587 
C  1.5068776526156709  -2.639467916558036  0.0870196996850215 
C  2.7454727024081245  -2.0569158116311757  -0.163537594511161 
C  2.9297475808852256  -0.6906716928732026  -0.28143071187388824 
C  4.1817754353336385  -0.04932569910294308  -0.5073423493787825 
H  5.0029434602955964  -0.47948328651377425  -0.7181840548664994 
C  3.990819564081347  1.2738328642312238  -0.36943628892550756 
H  4.649104081485938  1.9536766803941064  -0.45295766206133814 
C  2.596665661979956  1.464007192196676  -0.07004403411862058 
C  2.031452216396578  2.696469642126803  0.2605347620011492 
C  -3.9174560770348927  2.858894930621396  -0.659723181186383 
C  -4.710303741727198  3.2531847030518786  0.3980542225941455 
H  -4.464319075703373  3.012383569787345  1.2837048412354153 
C  -5.86023304232613  3.9985334589572448  0.18507242596736387 
H  -6.409153654029031  4.2562235897684255  0.9162015927568098 
C  -6.195050754071185  4.359971131135104  -1.10202110949634 
C  -5.438646735348858  3.9467396998579187  -2.161245658241943 
H  -5.691668902647267  4.179943381430855  -3.046944272758442 
C  -4.30169763370547  3.1862478210900966  -1.945194616586314 
H  -3.7836923444570694  2.889697763693371  -2.6835528181177106 
C  -2.923794413961947  -3.946321136342466  0.003981754214903895 
C  -3.9172815727928194  -4.149661355213584  0.9568685631421802 
H  -3.9834505173529666  -3.5659400721991625  1.7031781668133326 
C  -4.809275815711629  -5.196779648098231  0.8223000627193713 
H  -5.4796612959769675  -5.334761830309781  1.4817658049998557 
C  -4.731246346814002  -6.041032502034139  -0.2676313803561227 
C  -3.73932477375551  -5.869174734396488  -1.2068875544661317 
H  -3.675650781991553  -6.460446596677274  -1.9485427018546293 
C  -2.834435100449257  -4.834096434879938  -1.066658980296559 
H  -2.1431730368552113  -4.724889054337127  -1.7084943777861947 
C  -5.774156633437135  -7.090563389698585  -0.4521745457509281 
C  3.9158479748972077  -2.968468315793444  -0.323787972674849 
C  4.001377839211777  -3.8270194456407407  -1.3877501382372637 
H  3.3205174939013453  -3.8121989354815815  -2.0501521028043856 
C  5.055313144936522  -4.718673633284451  -1.5215416589114974 
H  5.10300423877731  -5.303082531196702  -2.2686426022981725 
C  6.043384508300179  -4.739630692293095  -0.5398580425776033 
C  5.971801815307146  -3.8835307613907983  0.5193043275871176 
H  6.654586130003997  -3.8943887921696643  1.1786918106132662 
C  4.918676768338643  -3.003074158276792  0.6399886906195117 
H  4.877020909261103  -2.4162178511522887  1.3867344868532123 
C  2.9664911792374142  3.8510242416476492  0.42595131103657957 
C  3.7158179550999355  4.045012825167585  1.5686113315323562 
H  3.6245987729445295  3.4422333422119387  2.297697174032829 
C  4.594406605897569  5.104531400544688  1.6642457454243638 
H  5.096866092744734  5.2267435968897  2.462011446079519 
C  4.752011015513406  5.978147278098919  0.6319557820154421 
C  4.0154273700913405  5.8170185762079525  -0.5082281920535108 
H  4.1147836882395525  6.423967048662535  -1.2318719261029962 
C  3.122064484645299  4.762202030522031  -0.6017738485787992 
H  2.604190876453355  4.6622536650732735  -1.391653060979264 
N  -0.2936780512496098  2.016041645715326  0.062102178550147276 
N  -1.9451049568508993  -0.3013378340345487  -0.0629585358663081 
N  0.28864149668023004  -1.9902625842999855  0.06373333158357342 
N  1.9501415114202791  0.27555877261920836  -0.0628769742674126 
O  -0.7836103757284265  4.883542879967515  0.39123994452809346 
O  -0.568171026738441  4.1424164773183625  -1.8075459118488064 
C  -7.401030679495795  5.173998048374146  -1.4331936740048696 
F  -7.116762624504213  6.251776312138495  -2.176071939313803 
F  -8.063573872204405  5.562074606997649  -0.3840273418904512 
F  -8.291560788526938  4.555021049306929  -2.2164979440907184 
F  -6.824220395175055  -6.6226240649228805  -1.1558048638962377 
F  -6.292288190163097  -7.525355087314588  0.7043917038037295 
F  -5.336456023765383  -8.161268340233141  -1.1145118957424351 
C  7.208743304011604  -5.679016988452536  -0.7226238595288721 
F  7.5642657659090755  -6.2133443378361575  0.4355266154902583 
F  8.273874497607034  -5.090815592309117  -1.1985777732693783 
F  6.944615535354965  -6.67994099740211  -1.5535012272148492 
C  5.6834657988039865  7.133300630873758  0.7312139215212261 
F  5.817699715949511  7.801779958975977  -0.40348285885129825 
F  5.308402364222665  8.003747133552372  1.616376333745465 
F  6.871607268691821  6.7560661739835695  1.08694144655625 
O  0.0  0.0  1.79 
O  -1.9698957903518624  0.019106272321667256  7.586021275453702 
O  0.025586965201598755  -0.6884601931469047  7.9277351897637205 
N  -0.2088418156733115  -0.11237919713700664  3.0946241075793117 
N  -0.8633251905201291  -0.27884527290885863  7.198528211925104 
C  0.815198328937932  0.1836645990169954  3.928547810913922 
C  0.6767819829444177  0.1523197077939796  5.291894950477438 
C  -0.5771283182364999  -0.19087307355199973  5.751559579771875 
C  -1.6310753914676575  -0.4493800758648383  4.906759078716918 
C  -1.433103080894522  -0.4100878000312648  3.5627423856263336 
C  1.8532885515616928  0.5633525987287267  6.137314637124388 
H  1.6988013671171367  0.4440285056904336  3.5358727964016357 
H  -2.531607129593653  -0.6647618323170561  5.275257962860863 
H  -2.188621646751417  -0.6033068334480203  2.9353359210668457 
H  2.2742006306655353  -0.22919432723443767  6.538764773269363 
H  2.5141512878011425  1.0528558914775288  5.555892544116057 
H  1.5455892492595926  1.2119610306110555  6.8849641081025625 
F  2.1788867410744994  -0.7602420632130871  -5.412554356374967 
F  3.942446892686828  0.9122676300353353  -6.381716503611008 
F  4.016466469018452  3.5155263294483174  -5.55242102777003 
F  2.2304459002431107  4.373610870764091  -3.7011283178329144 
F  0.4366515000606015  2.6877503581849607  -2.6598623854216483 
F  -0.4429719324685994  0.37330516493926447  -6.135922241696774 
F  -2.463455032837202  1.624299413010481  -7.336357834478665 
F  -4.616358920996989  2.4538989408436684  -5.899066687297475 
F  -4.665503367065376  2.0550086567159918  -3.196225192749714 
F  -2.623345920351764  0.9233494671961653  -1.9608853522169702 
F  -2.0809234058111303  -1.9412122660830806  -4.593876096969336 
F  -1.6882742906882235  -4.501543851583149  -5.150471196376355 
F  0.7247789787122005  -5.668378823646289  -4.670146351082739 
F  2.7367836457922374  -4.208097772468954  -3.6030831237055754 
F  2.306706694271868  -1.6706501457631902  -2.833859965255293 
O  0.0  0.0  -1.79 
C  1.233811556583392  0.8476262059505351  -3.9165492512112587 
C  2.1532956086138664  0.4945196456815979  -4.893399805368168 
C  3.077352639144368  1.347245181350618  -5.440558534755843 
C  3.124811607628131  2.6627357976691233  -5.039390222586981 
C  2.2226844591558157  3.080779577726989  -4.082798132956222 
C  1.3209418205225425  2.1905582116889404  -3.555469446916809 
C  -1.3782098739231572  0.626404733366996  -3.9649231764446626 
C  -1.4457635233269606  0.8313050822763893  -5.346591226834855 
C  -2.482630157031508  1.437154997231512  -6.001089748192289 
C  -3.5856892051347273  1.8669238041364609  -5.278314735474558 
C  -3.5916387892528614  1.6630100241847463  -3.9189175481909344 
C  -2.507814847876455  1.0754125499450202  -3.3005216536650983 
C  0.10917351266157449  -1.656077426963147  -3.6987724877617696 
C  -0.8739021611029553  -2.4416245233438083  -4.2911310101283595 
C  -0.6854273697450718  -3.788057528430542  -4.594176544389642 
C  0.5155589213867828  -4.3730603595187  -4.361437986921845 
C  1.5374843741308808  -3.6417113052998786  -3.7842236680358656 
C  1.2857821011276291  -2.3324053641527644  -3.429847570870911 
B  -0.02215462520181094  -0.059631211880608284  -3.312930366481612 
