70

Pd  0.0  0.0  0.0 
C  0.29002  2.03165  0.0 
C  -0.63886  3.08221  0.07525 
H  -1.69924  2.87963  0.11858 
C  -0.17577  4.41531  0.0703 
H  -0.87614  5.23645  0.1102 
C  1.1978  4.70244  0.01658 
H  1.55442  5.72465  0.01936 
C  2.12353  3.66805  -0.02913 
H  3.18608  3.88442  -0.05717 
C  1.66885  2.35425  -0.03228 
C  2.59385  1.20293  -0.04034 
C  4.09122  1.11671  0.01923 
H  4.69319  2.01791  0.01796 
C  4.67604  -0.1005  0.08358 
H  5.75856  -0.16334  0.13634 
C  3.86941  -1.36417  0.08293 
H  4.36832  -2.32574  0.13279 
C  2.52866  -1.28769  0.02552 
C  1.55134  -2.39345  0.01758 
C  1.60161  -3.70088  0.05189 
H  2.48678  -4.32317  0.08136 
C  -0.15141  -5.52206  0.19958 
H  -1.20726  -5.59725  0.53428 
H  0.48087  -6.01953  0.965 
C  -0.05356  -6.21724  -1.13904 
C  0.93339  -7.18908  -1.36978 
H  1.66692  -7.41459  -0.60732 
C  0.97744  -7.87858  -2.58669 
H  1.74005  -8.62757  -2.75568 
C  0.02941  -7.61453  -3.5788 
H  0.05405  -8.16455  -4.51165 
C  -0.95383  -6.64562  -3.36365 
H  -1.69322  -6.45021  -4.13111 
C  -0.99212  -5.94171  -2.15332 
H  -1.77323  -5.20844  -1.99699 
N  1.89287  -0.02117  0.0 
N  0.2171  -2.01047  0.0 
N  -0.64994  -3.06821  0.22867 
N  0.24866  -4.13768  0.11944 
S  -1.20034  0.11424  -2.19415 
O  0.36297  0.0  -1.81195 
O  -1.72297  0.0  -0.66805 
O  -1.18654  1.81615  -2.19053 
C  -1.54796  -1.57101  -2.85926 
F  -0.92261  -1.6817  -4.08652 
F  -2.91259  -1.67134  -3.06309 
F  -1.15386  -2.63099  -2.10739 
N  0.0  0.0  1.91 
N  -1.26714  0.07077  2.41502 
N  0.10223  -0.01687  4.11519 
N  0.52513  -0.04598  5.41417 
O  -2.15529  0.11191  8.47952 
H  -2.84736  0.18373  9.15048 
C  -1.24079  0.06798  3.6792 
H  -2.13821  0.13073  4.26263 
C  0.90905  -0.04893  2.96508 
H  1.98772  -0.1139  2.91986 
C  -0.31957  -0.05131  6.38235 
H  -1.38515  -0.04419  6.19841 
C  0.12098  -0.04216  7.76611 
C  -0.83962  0.04349  8.78612 
C  -0.42203  0.06539  10.11715 
H  -1.15628  0.13322  10.90771 
C  0.93845  -0.00215  10.42931 
H  1.25454  0.01519  11.46036 
C  1.89102  -0.09084  9.41069 
H  2.94449  -0.14513  9.6483 
C  1.48566  -0.11058  8.07961 
H  2.23528  -0.17904  7.29967 
