82

Pd  0.0  0.0  0.0 
C  0.46332  2.10642  0.0 
C  2.58769  1.17414  -0.48739 
C  4.05538  1.1793  -0.11766 
H  4.6227  2.09489  -0.04612 
C  4.68437  -0.01795  -0.00371 
H  5.7537  -0.06724  0.16486 
C  3.91446  -1.29282  -0.10337 
H  4.428  -2.24907  -0.1412 
C  2.57121  -1.23898  -0.07579 
C  -0.57326  -2.98564  1.51498 
C  -2.05568  -3.0247  1.85869 
H  -2.59462  -3.85974  1.40178 
H  -2.57212  -2.10093  1.57158 
H  -2.12224  -3.18473  2.95751 
C  0.00852  -4.40955  1.60794 
H  -0.10698  -4.80539  2.63729 
H  1.09028  -4.44422  1.37012 
H  -0.5224  -5.08514  0.90309 
C  -0.50878  -3.35745  -1.26266 
C  0.09819  -3.02036  -2.64683 
H  -0.10703  -3.83301  -3.3708 
H  1.19308  -2.85685  -2.60698 
H  -0.37099  -2.13067  -3.10155 
C  -2.03537  -3.36902  -1.45585 
H  -2.43117  -2.35031  -1.56714 
H  -2.55805  -3.85145  -0.6329 
H  -2.32781  -3.92566  -2.36896 
N  1.78334  2.3597  -0.21622 
H  2.16478  3.31722  -0.26406 
N  1.9091  -0.01436  0.0 
N  1.75023  -2.35682  -0.15955 
H  2.14064  -3.31226  -0.23671 
O  -0.36407  2.99343  0.13212 
P  0.02758  -2.09206  0.0 
S  -2.04002  0.0  0.04002 
S  -3.98586  0.06162  -2.23501 
N  -1.2466  0.08041  -2.52882 
N  0.04002  0.0  -2.04002 
O  1.05545  2.49139  -8.08709 
C  -3.76438  -0.12084  -4.01422 
C  -2.25424  0.13282  -1.71812 
C  1.17949  0.20071  -2.90295 
C  -0.16294  1.21228  -4.9147 
C  -0.13708  1.76721  -6.19511 
C  1.06062  1.94447  -6.84898 
C  2.26482  1.54275  -6.22784 
C  2.24577  0.97632  -4.968 
C  1.02754  0.81093  -4.27774 
C  2.18361  2.78145  -8.82396 
H  -4.77467  -0.16073  -4.4691 
H  -3.27949  0.79167  -4.39424 
H  -3.22685  -1.06032  -4.26283 
H  2.18285  -0.06516  -2.53667 
H  -1.14552  1.15274  -4.48549 
H  -1.07196  2.05712  -6.66923 
H  3.21904  1.64738  -6.71466 
H  3.17048  0.69413  -4.50687 
H  1.89375  3.24836  -9.77666 
H  2.81939  3.48238  -8.24576 
H  2.74303  1.83975  -9.02655 
N  0.0  0.0  1.91 
C  1.33357  0.51136  2.35673 
H  1.63847  1.41865  1.86826 
C  1.54904  1.00877  3.7134 
H  2.40169  1.67614  3.88961 
C  0.78877  0.63004  4.68884 
C  -0.42984  -0.16656  4.34754 
H  -1.03416  -0.54251  5.1595 
C  -0.83743  -0.36398  3.04409 
H  -1.76392  -0.85807  2.95507 
S  1.35058  1.24259  6.29813 
N  -1.4366  -1.12303  8.9265 
C  -0.16471  -1.58081  8.75098 
H  0.16034  -2.48324  9.24938 
C  0.72253  -0.87958  7.93446 
H  1.73708  -1.23261  7.79153 
C  0.276  0.28641  7.31239 
C  -1.01996  0.74375  7.5036 
H  -1.35498  1.65165  7.0157 
C  -1.87867  0.00657  8.32961 
H  -2.88707  0.35941  8.47138 
