79

Pd  0.0  0.0  0.0 
P  1.425153796963682  -1.56876915287113  1.4888480123008835e-16 
N  1.425153796963682  1.5687691528711292  -1.366076609352155e-16 
C  2.703378670864195  1.477928942417484  -0.19178276227750984 
H  3.168568734160907  2.299706797776617  -0.2954462151012995 
C  3.5129125403000323  0.2732435356824063  -0.26792076222369887 
C  3.1301445523844453  -1.0215183203131506  -0.23581914721748673 
C  4.35095253663522  -1.9212830291083614  -0.28505992702738886 
H  4.537399706775479  -2.3127984530800205  0.6048763322288563 
H  4.2232074442262135  -2.6543211137082223  -0.9380997480885515 
C  5.46517302699297  -1.010770081817295  -0.7135443277729528 
H  5.628414103537464  -1.0995843664078635  -1.6859751395952012 
H  6.299752473322133  -1.2364872654780892  -0.23133694420740095 
C  5.023789803493051  0.4148467407132021  -0.37559981260682374 
H  5.417880395485653  0.7196956976962875  0.4797734852750221 
H  5.274954362361107  1.0483817564808444  -1.0936532285620129 
C  0.9819313450847345  -2.5953181177412277  -1.4712483817746793 
H  0.031328663590489025  -2.8774423481864706  -1.3414660619786163 
C  0.9992682166976327  -1.695890918769584  -2.7129903020756405 
H  0.41971216381256893  -0.9081883541580836  -2.556760147275888 
H  1.9206647381521351  -1.3714885080843673  -2.871927478951248 
C  0.5051751806088471  -2.4546992927240074  -3.9487921726460016 
H  -0.45276340028592976  -2.6772610822396903  -3.835300961176209 
H  0.591320431764704  -1.8737499648181013  -4.745689634123306 
C  1.2951560512854532  -3.7327448619720824  -4.170790814286886 
H  2.2333447313265165  -3.5050226764955372  -4.389454178581433 
H  0.912697997711261  -4.2259494539822855  -4.939137284101311 
C  1.2658216457879887  -4.6220010488666485  -2.9335444133125903 
H  1.8220904423774391  -5.425160451060416  -3.0938279452448265 
H  0.33703026315191265  -4.9219273822847125  -2.767136114050257 
C  1.787022530380252  -3.883160431125859  -1.7030588630208854 
H  2.742568397821134  -3.658440822536666  -1.8310992579445236 
H  1.7123443945894878  -4.468597353645107  -0.9082124402535537 
C  1.611865122315076  -2.7217379256760243  1.4262123614393276 
H  2.3200221742118323  -3.3838218614157545  1.1809721895989447 
C  2.0937667503446864  -1.9860389365113573  2.684356700632786 
H  2.937823926066927  -1.5083264900188793  2.4856287142343354 
H  1.4175493193495257  -1.3157317003731013  2.955414268686158 
C  2.3229649513063704  -2.9757356086816706  3.831287597317913 
H  3.0660989647840444  -3.585584140729262  3.594644794824409 
H  2.5838219211519124  -2.478200940453709  4.646515053427096 
C  1.0653989715246825  -3.79805885021087  4.120408995586306 
H  1.2651799914321533  -4.466591468971608  4.822714307923925 
H  0.35394774137349105  -3.200023050435636  4.461350602468692 
C  0.5675836616474889  -4.51309881192036  2.870283341737708 
H  -0.2773201225977002  -4.986487339888825  3.075060872136049 
H  1.2357827217927915  -5.186420953082306  2.586852573750117 
C  0.33147591628584583  -3.5165341694178376  1.7304643491366494 
H  -0.39319898446287116  -2.8911670284305924  1.9834069655505195 
H  0.045395395547646045  -4.005363324807915  0.9184410351272596 
C  0.9246550589235931  2.9436438475019857  -0.0300126187460574 
C  0.7002931508900807  3.522790427696525  -1.278394204188814 
C  0.16316191537874447  4.816037787441533  -1.3110389947476955 
H  0.0016503156467355673  5.237526490090901  -2.146860654368323 
C  -0.13319730177916367  5.481703987015119  -0.1428627900804193 
H  -0.4961748037789082  6.358605739884435  -0.18169407716645164 
C  0.09073152023393605  4.891941115717763  1.0790518952847081 
H  -0.12573755477651982  5.362774181658776  1.8751832434809164 
C  0.6375388065182269  3.597343394770074  1.16198157985821 
C  0.9932038828405896  2.7749596950148665  -2.5536688563187244 
H  0.6893471206251199  3.30470424887675  -3.3202654814806296 
H  0.5226344954445907  1.915354205875843  -2.5437580194309724 
H  1.9578362483939102  2.6184845759377615  -2.6266525972260757 
C  0.9076450416576504  2.956420749676098  2.4916787501735356 
H  0.4421080827395234  3.4544131525546216  3.1951886126179474 
H  1.871866684647107  2.965210685387649  2.6685038621370962 
H  0.5867641264395158  2.030426171479969  2.479270309491837 
Br  -1.654629867976521  1.654629867976521  0.0 
C  -1.352040782177733  -1.3199206589279684  -0.4819701001757076 
C  -1.6380700204479186  -1.599217458033982  -1.8139382277462257 
H  -1.1579680913617836  -1.159339363685303  -2.503515938957912 
C  -2.63068216563725  -2.52632649780156  -2.142289956238523 
H  -2.8368222554424674  -2.694399528648736  -3.0538898079700485 
C  -3.3101544432602585  -3.1961573187854975  -1.1619874135498987 
H  -3.9960123560788676  -3.811990145619169  -1.3868663427944008 
C  -2.9974710358883443  -2.9701089012107795  0.12423560353005347 
H  -3.438659168087169  -3.468581175155742  0.8017084178296768 
C  -2.0389854250767776  -2.015940632791841  0.4912562833419403 
H  -1.8619130127668426  -1.8492165108145995  1.4101568590026907 
