63

Ni  0.0  0.0  0.0 
P  1.449027256472423  1.407273964088016  -1.0850687695928041e-15 
N  1.4490272564724243  -1.4072739640880165  3.3306690738754696e-16 
C  2.6763123994180487  -1.0132205145456807  0.09902715187648725 
C  2.9193556090624897  0.40856210281173144  0.4805701340240225 
C  3.861104324592642  -1.878402576511156  -0.16567410179314523 
C  4.797762374447714  -2.0867878074494985  0.84437807664542 
C  5.837646775417035  -2.971349216078064  0.6378179474198454 
C  6.0012499882902866  -3.6067043372675855  -0.5484289867029865 
C  5.109048426472791  -3.3464838191985855  -1.5972715464164553 
C  4.046405092694497  -2.5108778959680933  -1.384408923490931 
C  1.1401259339444876  -2.7588993821228485  -0.38305835359989615 
C  1.551354897348454  -3.8510357743398447  0.37090592967415154 
C  1.164418235559989  -5.116162796819632  -0.010499126342976811 
C  0.40083400200621  -5.330879559661058  -1.1287002621065843 
C  -0.012226231956721012  -4.230969300891296  -1.887939338927271 
C  0.35475707324623973  -2.9561869729438177  -1.508962993946327 
C  1.6183663123256533  1.7504864034036283  -1.7762226790754192 
C  0.5728339677103307  1.4496113848890966  -2.627427489680417 
C  0.6728572456670419  1.7103633915090732  -3.977468646427298 
C  1.836886619787275  2.2582457581807684  -4.482906118797018 
C  2.889707472432481  2.526987140208033  -3.6586539900029966 
C  2.791200206468443  2.2910826621378084  -2.310354106527983 
C  1.6299729527487283  2.999179447432753  0.8459630175699487 
C  1.657640292343198  3.008798896342813  2.2385092590005367 
C  1.6913575609115274  4.20969048044541  2.93836707243971 
C  1.7048733919597274  5.401088774441801  2.2454679546934306 
C  1.6430334119790486  5.407562183481172  0.8776057277672513 
C  1.6052167167740552  4.209693166489561  0.17497324510270992 
H  3.7083086920102457  0.7426851250511954  0.027007592672956604 
H  3.065567964230729  0.473451891389024  1.437111869932378 
H  4.724680435338563  -1.633104007213948  1.6523604338661109 
H  6.439790203870713  -3.137502542272461  1.3285120285907936 
H  6.699193895757485  -4.210228989662049  -0.6659433942518477 
H  5.239468655465441  -3.737050556043027  -2.43162048896997 
H  3.4368464014126214  -2.36410351139838  -2.0709568620334173 
H  2.082423123153603  -3.727736832962466  1.1238548127966563 
H  1.427468267156581  -5.844762050529603  0.5043173927881754 
H  0.1610699296917648  -6.193355908242243  -1.3792300961887984 
H  -0.5354786393251922  -4.3576981998484925  -2.6464916471778217 
H  0.07464954998516626  -2.227174871405475  -2.0114271232363694 
H  -0.2036700096243631  1.0669653161479844  -2.28833565955119 
H  -0.038064386082218515  1.518797003670223  -4.545028619083366 
H  1.9015365816551526  2.4464995643056358  -5.390970398961159 
H  3.678894949366527  2.8702258785961385  -4.012164251127377 
H  3.506572635488523  2.493107319208931  -1.751391517678588 
H  1.6552229804016159  2.2037678512796193  2.703699567463046 
H  1.7063999514391919  4.208319709686322  3.8675630837714228 
H  1.75603124678143  6.205422521022225  2.7099106508378914 
H  1.6267994000503503  6.216183908205149  0.4174656804326126 
H  1.5610042991981592  4.221233748078111  -0.75345174761814 
Br  -1.5839191898578664  1.5839191898578664  0.0 
C  -1.2937473829822488  -1.2398794889499034  -0.4598005675376139 
C  -1.601562203225019  -1.4938654694550033  -1.7919791134336869 
H  -1.1309417375171225  -1.0428217585005106  -2.480879663633267 
C  -2.60218398542082  -2.411889969420291  -2.121542410022959 
H  -2.8231586547736818  -2.5626138747145775  -3.03270050271447 
C  -3.2683208079706407  -3.09759503004543  -1.143064365570095 
H  -3.9596020908062854  -3.707191723557817  -1.3683280760515548 
C  -2.9347449854640226  -2.896087320001541  0.14198826503765638 
H  -3.3668350933519986  -3.405606940434718  0.8171022443470677 
C  -1.9675509241539992  -1.9516175659140573  0.5112421903797603 
H  -1.7755298364628027  -1.8022912010877177  1.4301324877763764 
