49

Pd  0.0  0.0  0.0 
P  1.5244288619020576  1.4724865517212695  2.225652001095458e-15 
N  1.524428861902057  -1.47248655172127  1.9984014443252818e-15 
H  1.7014979079068784  -1.7692414385412607  -0.8965707390359147 
H  1.3272907957947755  -2.1240450320880284  0.5259844575209911 
C  2.787190779799011  -0.92438584135718  0.4900060918066486 
C  3.8102754143303725  -1.765678489192847  0.9161370238962359 
H  3.680531076682972  -2.706217588433569  0.9310845871722959 
C  5.015720812616088  -1.2218867621553495  1.3189502304292013 
H  5.723087618990458  -1.7938538942255806  1.594467818018632 
C  5.200872940743677  0.15568961885051835  1.323251851588707 
H  6.03409610569437  0.5226302468436208  1.5982354927705507 
C  4.177031527165198  0.986331361262522  0.9280918009707549 
H  4.299809175587232  1.9274907989361698  0.9512911959150483 
C  2.9582314536222905  0.45861893218012195  0.49335933965251666 
C  1.542340086559241  2.699049230944898  1.3729828119707341 
C  1.7977264744322032  4.058855925042987  1.2045166207773033 
H  1.9520400059711238  4.406920659081397  0.3333972690792848 
C  1.8280575904750882  4.907803681841672  2.3068942283265983 
H  1.9990605004582398  5.8339467412848  2.1821420010013233 
C  1.6153217565097875  4.421353986146531  3.5719995277010277 
H  1.6378692709641332  5.008034478399699  4.319124918516736 
C  1.368712714902951  3.0764731906750264  3.754281497653313 
H  1.2236705942091004  2.737001601331358  4.629907378525453 
C  1.3294361619402748  2.2184296937595023  2.6649555823330333 
H  1.156998256904052  1.2948135843898072  2.800270257884172 
C  2.1265462230188206  2.463395306232048  -1.4208961023508118 
C  3.354576820381321  2.2286777601899534  -2.0375800858638815 
H  3.9330098112794527  1.557379079163284  -1.6926035563832287 
C  3.7389546658805832  2.963407679275005  -3.1466454526888716 
H  4.583000768208023  2.802678435450441  -3.5502728270398656 
C  2.9081374903757657  3.9200894794267893  -3.663042368001662 
H  3.1695849989797624  4.408541329230944  -4.434854677224359 
C  1.6952214145002311  4.174308704425769  -3.065955214795645 
H  1.124386529402304  4.84507677279653  -3.420738743738844 
C  1.3035111640478472  3.4488260922068377  -1.9435207360581903 
H  0.46758637656038693  3.6316263084025997  -1.5328957604139333 
Br  -1.654629867976521  1.654629867976521  0.0 
C  -1.352040782177733  -1.3199206589279684  -0.4819701001757076 
C  -1.6380700204479186  -1.599217458033982  -1.8139382277462257 
H  -1.1579680913617836  -1.159339363685303  -2.503515938957912 
C  -2.63068216563725  -2.52632649780156  -2.142289956238523 
H  -2.8368222554424674  -2.694399528648736  -3.0538898079700485 
C  -3.3101544432602585  -3.1961573187854975  -1.1619874135498987 
H  -3.9960123560788676  -3.811990145619169  -1.3868663427944008 
C  -2.9974710358883443  -2.9701089012107795  0.12423560353005347 
H  -3.438659168087169  -3.468581175155742  0.8017084178296768 
C  -2.0389854250767776  -2.015940632791841  0.4912562833419403 
H  -1.8619130127668426  -1.8492165108145995  1.4101568590026907 
