93

Pd  0.0  0.0  0.0 
O  0.0771091122115607  1.9015186903914454  4.385380947269368e-15 
O  0.3240489343788088  -1.8758126670920372  1.6653345369377348e-16 
N  1.9988419534096307  -0.025706023299408215  -4.551914400963142e-15 
N  2.5534850154296285  -1.2969449738842413  0.1859559740074334 
N  2.5057231903715556  -6.266323609252825  0.9207839038041965 
C  1.102842906133388  2.7539696871203114  -0.15393187513538625 
C  0.8124515451814222  4.114214450606111  -0.18771901609055247 
C  1.8210807926903454  5.038039076184462  -0.33530269487856673 
C  3.150730992812801  4.632291885644581  -0.4371799871634832 
C  3.4531806198996993  3.2954622048519586  -0.35768352417997323 
C  2.446958895028177  2.326605687525202  -0.20866020644061584 
C  2.8360172894854836  0.945866992486625  -0.06496608086315037 
C  1.606400715329475  -2.1741742304808054  0.15929926988177684 
C  1.932925317194316  -3.5967982087124435  0.35779045592638375 
C  3.2342131087819963  -3.997472603125442  0.6638006732829891 
C  3.454751064385148  -5.326681563444773  0.9357548788860326 
C  1.27890995344917  -5.878678822797693  0.5763980428194979 
C  0.9535583687510794  -4.563149244570969  0.2888862775905587 
H  -0.09269725044886745  4.393686683107169  -0.0898545228873831 
H  1.6147642857500284  5.969552889897157  -0.37558996118414584 
H  3.836952661080903  5.2696049802345275  -0.5963587277777083 
H  4.372334167413402  3.0226695004493824  -0.40385100751733366 
H  3.7621933541562935  0.7330469321808237  -0.024601626669794097 
H  3.944318533203262  -3.3687732271700535  0.6776495317485081 
H  4.330439376501772  -5.595111128651753  1.1464184223508032 
H  0.6026129287203331  -6.539945225087287  0.523018931306674 
H  0.05850399818494656  -4.331513131639298  0.06781419677442918 
O  2.7733726724272953  -0.28712548170255775  -10.410039356272687 
O  0.8752324744026971  0.6366079812016364  -11.123446994411097 
N  0.44407002066686246  1.059865392744566e-15  -1.8564254952044081 
N  -0.7194630044828454  0.09990572235358261  -2.6158658984139005 
N  -1.804070020666862  1.7281305630019254e-16  -0.6235745047955923 
C  1.4582296128047743  -0.04778024968011037  -2.6688649387418266 
H  2.3557379166035055  -0.11329524932930769  -2.3999060395893252 
C  1.0246024100780198  0.010386754002198819  -4.0107561894540416 
C  1.6783591572306742  -0.002709006052944489  -5.258363273684058 
H  2.617183485593986  -0.046101526591591266  -5.2998090169456145 
C  0.9370627998831563  0.05080157913792658  -6.415242851624615 
C  -0.46967145167477353  0.1019876817983245  -6.315417712565263 
H  -0.9737443491806164  0.10423726680935702  -7.109070378009893 
C  -1.139755086547322  0.14836748167823496  -5.122566499530265 
H  -2.076339175584657  0.20855453551024533  -5.089307023990941 
C  -0.3763923705992276  0.1032291561698409  -3.969263384356008 
C  -1.9259932343430264  0.08331620772229122  -1.9057901260924464 
C  -3.1780037553156273  0.17343930045060635  -2.684447524137981 
H  -3.24350742470979  -0.587909140863409  -3.2828136914675206 
H  -3.1786470348630775  0.9927266605388738  -3.2024420972669327 
H  -3.935634982405102  0.17446891372829212  -2.0782486098900366 
C  -2.9850572520821252  -0.12617158630382463  0.2112226562224011 
C  -3.5835011854501273  1.0281973057849612  0.7218606293430495 
C  -4.6973500227248834  0.8675636834617169  1.5567765574944707 
H  -5.118879253431686  1.6248743942377166  1.920973489117604 
C  -5.174880193416765  -0.3717964359164257  1.8490774479719931 
H  -5.922677791384214  -0.45682804476188527  2.411080595624464 
C  -4.575963512673937  -1.5104147549788585  1.3317651989159718 
H  -4.921191287714511  -2.3577258197059794  1.549030665411587 
C  -3.460703038565831  -1.4068673865374708  0.4816635241846564 
C  -3.0585171420716275  2.425272719434385  0.4524056557866769 
H  -2.2347064678546533  2.3461272633778254  -0.08932081562833283 
C  -4.068694984187049  3.238273772080665  -0.33880923012935094 
H  -4.247438088011768  2.798973244918328  -1.1841242008177975 
H  -3.7132482680704704  4.124786151515001  -0.5037552913482313 
H  -4.894356743009868  3.3107325816109783  0.16716151105938115 
C  -2.7127902073814365  3.1571964774329366  1.7379608506760402 
H  -3.5220858463954055  3.3137047287926498  2.2482247783932086 
H  -2.295964587051611  4.0063982988949745  1.5232631826350973 
H  -2.0991517431601983  2.618496254193583  2.2595902830416392 
C  -2.8221880217136115  -2.6501286290687434  -0.08024771976213352 
H  -1.9931748673439584  -2.380570710493766  -0.5481987838869928 
C  -3.7261347636871074  -3.310276685720331  -1.0870368739422305 
H  -3.3021786730090588  -4.1147586027460905  -1.4243853856561315 
H  -3.889096272537028  -2.69915040771046  -1.8234374367877275 
H  -4.5671764412330145  -3.539492452064696  -0.6639767374486589 
C  -2.4442729111760895  -3.6252547990559676  0.9938976250741749 
H  -1.8190594922659102  -3.206638273653363  1.605454323569499 
H  -2.030233465789685  -4.4048338697809  0.5923093406935068 
H  -3.2408979722268767  -3.896321331934141  1.479071508191624 
C  1.5817983647852083  -0.0037229806453582233  -7.727119390682655 
H  2.506198306123621  -0.1743924311263473  -7.742564361582434 
C  0.9798706423556225  0.1673473496592437  -8.894845162882703 
H  0.05139488086531152  0.31662421508341154  -8.893697219459888 
C  1.6632351861870311  0.13874249175984016  -10.187035385852472 
C  1.4002200927549593  0.7229934214674072  -12.467737129124153 
H  2.2898224292241887  1.1122665275691754  -12.442128110900411 
H  0.8203342101117888  1.279626447390986  -13.007833229426966 
H  1.4480583227804456  -0.1659607133452387  -12.85354551413869 
C  -0.1344669618524224  -0.10348724587118574  3.123117100695903 
H  -0.21533946523330894  -1.0285234187522574  3.363820231249804 
H  -0.921353223946199  0.3702794617331361  3.40060397839257 
H  0.6353300952372063  0.2725811430422801  3.555639594626771 
O  0.0  0.0  1.83 
H  0.6358295557947239  0.4891500598480273  1.6591183306245096 
