105

Fe  0.0  0.0  0.0 
Cl  4.3272665213163215  3.2814064928653837  2.4144110872686695 
N  1.9181289362124567  0.11837026687236263  0.175207463411347 
N  0.11303614594304867  -1.8950756593037645  -0.17581782183483963 
N  -1.908381332468995  -0.11447767988594627  0.17703977502752805 
N  -0.12278374968651018  1.8911830723173484  -0.17642941660403544 
C  2.6096024546212164  1.272129380631207  0.46547435914321983 
C  3.8353521984820174  0.9106766937611124  1.1647471890026204 
C  3.9601003690466663  -0.49125751296844244  1.0879120802153734 
C  2.780925671789861  -0.9481316782044987  0.34738360642845567 
C  2.5365853295091134  -2.1744169190248845  -0.26742953207804804 
C  1.2447897030581931  -2.5771722389619387  -0.5877674813514339 
C  0.8553493710788175  -3.817909403446813  -1.2033454020843257 
H  1.431085337939713  -4.429189333254685  -1.6460360998370935 
C  -0.4607417488725125  -3.9519881394792824  -1.0415952968936597 
H  -0.9864916566877683  -4.69551206354935  -1.3140817530115738 
C  -0.9404181594702208  -2.772900797834775  -0.3842421787830138 
C  -2.2342123181670526  -2.53487696047878  0.020169378633788853 
C  -2.652913414914123  -1.2604817779768824  0.4016412785147072 
C  -3.9604252940089357  -0.9085533137450715  0.8779950358100512 
H  -4.641995992580919  -1.5131131413784844  1.1473316052913567 
C  -4.04178602783868  0.4316488090496597  0.8735138476658811 
H  -4.787296014900754  0.9522899272869313  1.14748170196881 
C  -2.7932538887440375  0.9279480145625257  0.37725655930121105 
C  -2.54153405193482  2.231745862376147  -0.06457209050922369 
C  -1.274065107218263  2.6090701604511737  -0.4723519309394326 
C  -0.9201304653131349  3.8278635418300664  -1.1364649128683324 
H  -1.5213685644312545  4.472937692159956  -1.492828307095353 
C  0.41938816822393404  3.8858941794627566  -1.1602811993742124 
H  0.9390473142988381  4.582603082988205  -1.5424561797811858 
C  0.9274727827020173  2.7216730506339415  -0.5137016391349323 
C  2.242454765018958  2.5002672603383824  -0.09572972356474649 
C  4.688666162758852  1.6368362966898538  2.014896946071648 
C  5.748651214345684  1.0001789953735452  2.6577893096077974 
C  5.842576258206027  -0.37426633160632605  2.542182608768149 
H  6.565885308723427  -0.8059445729572514  2.9817132372615367 
C  4.95900204811174  -1.1652940957237474  1.832937107089323 
C  6.716635065426508  1.7588753945330138  3.5640351801910497 
H  6.16647385648674  2.4077828779158024  4.090517518154775 
C  7.661892293323988  2.601374672671001  2.6686831938501787 
H  8.230181361995148  3.1709454936122827  3.2278200951195735 
H  7.123448913645851  3.1643200704412218  2.073958243969888 
H  8.222439221172047  2.0031242555577693  2.1329305549355873 
C  7.52435215901693  1.0002656026280665  4.543541265086786 
H  8.036277611192961  0.3041710330375336  4.080556846773451 
H  6.9240150554350315  0.5827883006711212  5.1962991715219715 
H  8.14224084381714  1.6037771290489278  5.007445469285273 
C  5.0152836936679694  -2.6013616941674034  2.075703103624575 
H  4.275331300872243  -3.0164725036072397  1.5486044294827377 
C  6.341324362218291  -3.2796307140204486  1.611080318929063 
H  6.5941383813572125  -2.9154926928134026  0.7372283444858834 
H  6.184494084217622  -4.243666225629273  1.5293045507617864 
H  7.063914342107018  -3.1198715212957833  2.2525749652858136 
C  4.8165500278883  -3.040061901264171  3.561217179080958 
H  5.588910143493952  -2.7519324514451897  4.093356072574596 
H  4.736384055815542  -4.015645983688579  3.604809208647825 
H  4.001970020156155  -2.628745059359987  3.9178038257309216 
C  3.658676171582212  -3.0406048042174496  -0.7346977523555663 
C  4.6399613202054315  -2.512061876931609  -1.5300574955583643 
H  4.635132534644297  -1.5813311966527885  -1.721853281793956 
C  5.655574645152363  -3.32304652350367  -2.067876979413897 
H  6.329850508821079  -2.9692664889381835  -2.6370755184287575 
C  5.619630325556596  -4.688554051079194  -1.7196458808265112 
H  6.305481686911024  -5.253687264692804  -2.055981369585925 
C  4.667763533751375  -5.243445786866012  -0.9318730060625148 
H  4.669260746084928  -6.171991673446458  -0.7316476708280268 
C  3.7108658573531446  -4.4114323681755145  -0.4412515450331189 
H  3.04365114852032  -4.775793506937662  0.1279650595007629 
C  -3.2335310519123293  -3.638661623405674  -0.022797542050655532 
C  -3.0618649665888396  -4.806614357877649  0.7156042287957767 
H  -2.2997086804444895  -4.905876525587601  1.2742992238979118 
C  -4.002129271442366  -5.826588546257183  0.6402495205299646 
H  -3.876156819721411  -6.62190784619991  1.143010112209568 
C  -5.112370627748775  -5.694992308643201  -0.1563163467985019 
H  -5.754070077998786  -6.393940379873788  -0.19745512743035398 
C  -5.290562945559173  -4.547088580166376  -0.8907261697327815 
H  -6.063411683013704  -4.452356278223757  -1.4366857103432487 
C  -4.3535459471095725  -3.5252666998948703  -0.840814752051942 
H  -4.477669281419833  -2.74364599855374  -1.3670013796991136 
C  -3.6556146464341697  3.2242845660414985  -0.13979715738378112 
C  -4.867479305901081  2.9069489582152213  -0.7452118740373121 
H  -5.000670039194067  2.0379790840160408  -1.1039279543837868 
C  -5.887774066393102  3.851641651272918  -0.8303961882971945 
H  -6.710071449054506  3.6317259288733417  -1.2511996572820383 
C  -5.695265084057532  5.093463050888614  -0.3058670345062549 
H  -6.3902656149540675  5.73825210187662  -0.3614152278119073 
C  -4.52468508691965  5.4241771636031935  0.2971534675930395 
H  -4.410915265023554  6.2954217034729165  0.6582241384774605 
C  -3.4867581749874077  4.496690761969502  0.3899883224234537 
H  -2.66895963886136  4.733637483075711  0.8126640795554554 
C  3.2497127185875896  3.549992621704473  -0.4306740632356326 
C  3.01624597885771  4.900282554859222  -0.14597276738181236 
H  2.250046327721429  5.154148576628739  0.35593366572057467 
C  3.9088158606215857  5.873377434745857  -0.5968770376060332 
H  3.7265438464612752  6.7919824209219115  -0.43491166406454235 
C  5.043366342303213  5.512879444601346  -1.2718322758387306 
H  5.6512752627253615  6.180115894844805  -1.5674567402148831 
C  5.300140231685774  4.187401307870841  -1.519955005109518 
H  6.092739979707437  3.939257745859595  -1.9811888634377723 
C  4.413011706710539  3.2098003636714965  -1.104001228740299 
H  4.602813989124974  2.295868570956775  -1.2800732079292827 
N  5.382856305185334e-17  -1.9595859214340343e-16  1.8699999999999999 
N  -0.022744485156835664  0.0069797073367081075  2.9713655669578762 
N  0.02274448515683597  -0.006979707336709051  4.105786220120441 
Cl  0.0  0.0  -2.15 
