86

Pd  0.0  0.0  0.0 
O  0.36666634392552494  1.9684374621798704  1.3687593219684453e-15 
N  2.018064395490512  0.029298608129608328  -5.929403438603313e-15 
N  0.015269260583963051  -1.9977360703094789  4.532888541019239e-15 
C  1.5756327059472417  2.277003624628991  0.10110513780910614 
C  2.8440603510287845  -0.9456825514065468  -0.0648400338059018 
H  3.751932018137256  -0.7492987074447897  -0.11267811374738768 
C  3.078944514222991  3.9953500205672974  1.0972102932342382 
H  3.5824558870902283  3.322871112116507  1.4960460427379458 
N  2.502145743709449  1.3196697540748117  0.07161901995000915 
H  3.344055447352921  1.4936215592722246  0.09551609884097512 
C  1.1101862853820568  -2.829279915277116  -0.0009605746854035734 
C  1.9976975088579443  3.6785768371321366  0.27364783437305873 
C  1.60352021984343  5.994243197780426  -0.13145728900490233 
H  1.1165843585864585  6.6674370254202096  -0.5492575133342185 
C  1.249420824108429  4.677705335190135  -0.32805892762039196 
H  0.5166328065306018  4.462112169406785  -0.85899733097983 
O  4.378569161916705  5.754015901478386  2.142807263594336 
C  2.4465250467467334  -2.333321162896062  -0.06728252286963443 
C  3.390949582253362  5.3316511142261565  1.3089599440237911 
C  2.0396925703779485  -5.100953396956628  0.08887894216115994 
H  1.9086639727071366  -6.020064989801168  0.14975452422156518 
C  0.9112419121965738  -4.243569250215708  0.08673722150578828 
C  2.665625059301486  6.32780889942564  0.6747213032969004 
H  2.89781562168149  7.221083972888336  0.7927449698721657 
C  3.5016019704622234  -3.2424119689737187  -0.06943690169688052 
H  4.374618486945532  -2.925888243494966  -0.1239343617881606 
C  -0.37926729616561117  -4.745786551561548  0.18410901085623568 
H  -0.5142323044423498  -5.66396949033294  0.25009656642537204 
C  -1.442795814291309  -3.906921849332617  0.18104755895834904 
H  -2.311180067548224  -4.232878158504587  0.25508621917326163 
C  -1.1942718788986568  -2.53701571954402  0.06505191634805539 
H  -1.9266906115673461  -1.9641511618456486  0.02975363637521059 
C  5.102251813810024  4.783782601896824  2.8738015000502246 
H  4.488808089530428  4.192143092109373  3.316458734940205 
H  5.652809497702981  5.220934002728374  3.528560111644939 
H  5.657185295385707  4.279685534409361  2.2755037668296896 
C  3.2736348387176895  -4.628311256985266  0.007151676650409927 
H  3.9938299190386024  -5.216085884485877  0.001590782111609804 
O  0.5868728707814369  -3.5317642707644978e-15  -1.934736735589821 
O  -1.946872870781437  -1.7604973977269036e-16  -0.5452632644101797 
C  -0.19081780887904032  0.028290346517090746  -2.9419445210358965 
C  -1.5627422024807214  0.05619789626477792  -2.8968699505136097 
H  -2.009924175737752  0.09312264289918593  -3.7126318372673026 
C  -2.3573309003261924  0.0340534646262447  -1.7370714484436687 
C  0.570148366146837  0.02218635237351974  -4.265182958250471 
C  -3.8824762814453853  0.0564141557524106  -1.873954266734228 
C  1.4109351726437995  -1.3036865967180222  -4.311138250525278 
H  0.830794520590776  -2.055616625013355  -4.169668407861574 
H  1.8355944742306365  -1.3833287074448315  -5.168381449258759 
H  2.0803560875150424  -1.2822934337411767  -3.62334418882451 
C  -0.3468774542763322  0.024439489370613146  -5.418796215824677 
H  0.1418317031606664  -0.1947191699604174  -6.215592589735513 
H  -1.0396574417013058  -0.6255737727069699  -5.2790991931407945 
H  -0.7385886023629682  0.8952826256678675  -5.514609828785667 
C  1.5175984850619557  1.1528000889033971  -4.281499236557254 
H  1.029777233607055  1.9787331145269875  -4.3176593501253535 
H  2.0532675750460276  1.1329549785488229  -3.4848587043027837 
H  2.0862193646550535  1.0831534609937645  -5.051468588227597 
C  -4.551960125237312  0.44580898144815334  -0.6002115012501589 
H  -4.151613981747071  1.2497404192396695  -0.26200520514824 
H  -4.448434070251906  -0.2585349872092536  0.043341930684680285 
H  -5.48543434004538  0.5972095536268893  -0.7631824404768226 
O  -4.299594582296631  0.5097140680735348  -3.110092540789637 
C  -4.304231017883341  -1.4267342219543826  -2.274966937354392 
H  -4.561144961235561  -1.4464149621948463  -3.1992635911267673 
H  -5.0443215563819574  -1.706299146543716  -1.731773990268177 
H  -3.562383997375534  -2.0185980029008577  -2.135431017364402 
C  -4.000216220096005  2.07102892436845  -2.80461794976952 
H  -4.494786138862991  2.345286284987244  -2.0290850326104484 
H  -4.267406970765222  2.601966237424741  -3.5584098921258818 
H  -3.061332306105017  2.1908830182353816  -2.643890067209151 
C  0.061989086474873556  -0.04909658514348737  3.2353290214342185 
C  0.6650425260346455  -1.2828758020605577  3.6546594435819895 
H  0.17292382757594804  -2.0349937891763856  3.2647116392746027 
H  0.6363711990672554  -1.3450073062196066  4.631554899196797 
H  1.5967993115808996  -1.308706268533468  3.3510939488525913 
C  -1.4447184321665658  0.07555373625917858  3.754441148670298 
H  -1.8296325943927672  0.9176914489261795  3.437302692122227 
H  -1.4545446114104774  0.05936530732600771  4.733735405250077 
H  -1.972053162003026  -0.6749297909899609  3.4098198231026577 
C  0.7789947926026602  1.211839929646345  3.785829214939965 
H  1.6939964094786724  1.2454865763594563  3.437971651734496 
H  0.80321117509715  1.1716110030445581  4.764809684757084 
H  0.2916204720607287  2.014061540561741  3.503385293680192 
O  0.0  0.0  1.83 
