78

Pd  0.0  0.0  0.0 
P  1.4855741154516657  1.5116777260712677  -1.375461616276009e-15 
N  1.4855741154516657  -1.5116777260712682  0.0 
N  3.4344452446820983  -3.457928553386359  0.4741113253524858 
N  3.1452911266851977  -2.5284586103108335  1.377531925607223 
C  3.594602487204308  -0.3229845648178731  0.28682692609295807 
C  3.2011068160080476  0.9185634633307647  -0.23729219257192255 
C  4.129436218004162  1.7062982790674486  -0.9124579732997854 
C  5.434769914650186  1.2936001826144565  -1.027697209606535 
C  5.8248733515688444  0.07129719889444064  -0.49972958323784344 
C  4.911886699230141  -0.7233566577327794  0.13821487421820175 
C  2.56768130309396  -1.2373337783848632  0.9488586000141302 
C  1.7294152247539298  -2.4445964796373394  -0.901778361161429 
C  2.841130469768738  -3.355287039706554  -0.7027248814065771 
C  3.1810522032478667  -4.340225253931326  -1.7273496074737729 
C  4.267196011649561  -5.193442978685441  -1.5917678917592086 
C  4.553072145246711  -6.1229640636139315  -2.6216571134296456 
C  3.7759639126942695  -6.173181910110415  -3.738177808621854 
C  2.7278769829854035  -5.317545948362428  -3.8808950771532467 
C  2.3957850075080414  -4.386729190443443  -2.873043032951917 
C  1.241697650243942  -3.5281324785813215  -3.001387990713229 
C  0.8958568660120615  -2.6173051367123668  -2.057704190245173 
C  3.68315453860658  -2.69604215714154  2.679964424797865 
C  3.863059495659735  -1.6018356265612135  3.5228720442100285 
C  4.395512501544976  -1.8022788955028601  4.773979051008337 
C  4.741011898382698  -3.0529668578859654  5.204696728303738 
C  4.572161067405162  -4.138682147391146  4.351936945590649 
C  4.048463711145193  -3.975259917414892  3.0742359305656444 
C  1.2962405999338424  2.82579502484421  -1.2180745892462388 
C  1.0559104450132026  2.448667985682477  -2.536525780215769 
C  1.0701507445102403  3.462482959977962  -3.545144727967841 
C  1.2214901162238005  4.762801133685926  -3.214947239040182 
C  1.411184697311763  5.122368361955303  -1.949466810799364 
C  1.457053882398636  4.154497184940274  -0.9403710459866089 
C  1.5566285471127648  2.3746218361166513  1.599639656509975 
C  0.4141519139411385  2.593989644665261  2.3092649430024035 
C  0.470928969063791  3.372617423390969  3.5019103086531898 
C  1.6852009099246852  3.8871732785080177  3.919553907434119 
C  2.806866361936903  3.646409021204381  3.221449763221141 
C  2.750087202871261  2.8862012532519796  2.0643971383848063 
H  3.859447629224639  2.535338982245021  -1.2920439904338101 
H  6.068726667155248  1.8433980004072783  -1.472738180196319 
H  6.728641499678578  -0.21401061345316674  -0.579473527683654 
H  5.187572288108157  -1.5647281505214723  0.4849991258899251 
H  2.2069416207794115  -0.7959181555363323  1.708954054222912 
H  4.812778773835301  -5.154712884968864  -0.8145855647300222 
H  5.2913334135325805  -6.715045202711037  -2.533318195197475 
H  3.9674211454597086  -6.806692104435292  -4.418379221225722 
H  2.2090332799626937  -5.34606983560132  -4.674861505719624 
H  0.7040588035823047  -3.6038302268688462  -3.780227641388884 
H  0.10664314497372818  -2.0978078447591635  -2.161325212138117 
H  3.621274091606328  -0.7280505087286796  3.237520881182592 
H  4.5247498438784834  -1.0587299659825424  5.351283640246766 
H  5.095135617206344  -3.179985025639895  6.078643504044121 
H  4.820116957495333  -5.006682609639233  4.647179158200394 
H  3.9463054771914727  -4.716563748696698  2.491584246484679 
H  0.887996436357513  1.5408103012494796  -2.7624113054561787 
H  0.9709298110999451  3.2184278722848814  -4.458646769861722 
H  1.1927899833354603  5.4264569398790385  -3.8946998214393633 
H  1.5148705933345896  6.0398280930081985  -1.7298430942697223 
H  1.6027639076902676  4.426746274744351  -0.04258754667824047 
H  -0.41299255502965515  2.2310089308949697  2.00935964314618 
H  -0.3182459538974003  3.5388150531284563  4.004446137066341 
H  1.723808109242368  4.411567834522417  4.7104106161894395 
H  3.635191832698005  3.993292590338401  3.523126268692263 
H  3.551455566729121  2.7164078604055626  1.5830886622974785 
Br  -1.654629867976521  1.654629867976521  0.0 
C  -1.3788582233137676  -1.3788582233137676  0.0 
C  -2.618821778986925  -1.1522995256591737  0.5874691967409313 
H  -2.8106553971707884  -0.30966242518610043  0.9782000501948407 
C  -3.5854032518711887  -2.161278806785389  0.6049610958635797 
H  -4.421117162155692  -2.007227978208148  1.0287619599160838 
C  -3.3399450833386255  -3.3715361338635086  0.016423527177974573 
H  -3.9908757182151104  -4.061238805801311  0.045080339651694 
C  -2.164680252095028  -3.57422256025893  -0.6007549227026177 
H  -2.0132444416912625  -4.3986257169530365  -1.0474288760065327 
C  -1.1561711193052586  -2.601214672555715  -0.5998012209931929 
H  -0.3196784027493984  -2.7832859823079534  -1.0129111498427692 
