35

Fe  0.0  0.0  0.0 
N  1.26613  -1.37616  0.0 
N  3.18704  0.01861  0.62148 
H  4.19851  0.02033  0.82891 
N  1.22596  -2.66157  -0.28545 
N  1.20805  2.64431  -0.36898 
N  1.26613  1.37616  0.0 
N  3.25421  2.37381  0.22164 
N  2.37302  3.24975  -0.20453 
C  2.57199  -1.19851  0.32435 
C  2.57393  1.22006  0.31036 
N  3.26302  -2.3454  0.30457 
N  2.39189  -3.24876  -0.08374 
N  -1.34353  1.3007  0.0 
N  -1.34353  -1.3007  0.0 
O  -4.88924  -3.58427  -0.3599 
H  -5.77568  -3.22639  -0.45154 
O  -4.89904  3.60963  0.17751 
H  -5.79139  3.25705  0.20532 
C  -2.62297  0.67055  -0.04699 
C  -2.61987  -0.66004  -0.08543 
C  -3.87037  -1.47828  -0.2003 
H  -4.85187  -1.03371  -0.28149 
C  -1.37684  2.75437  0.16966 
H  -0.58239  3.42594  0.35879 
C  -3.87921  1.49678  -0.01462 
H  -4.86515  1.05592  -0.03094 
C  -2.5158  -3.46528  -0.0894 
H  -2.47383  -4.55446  -0.07085 
C  -2.50227  3.46637  0.18395 
H  -2.44984  4.5461  0.31407 
C  -1.39527  -2.76471  0.05578 
H  -0.62217  -3.46141  0.2297 
C  -3.79857  2.82763  0.09588 
C  -3.79563  -2.81445  -0.23139 
