72

Pd  0.0  0.0  0.0 
O  0.1087  -2.02375  0.0 
N  2.6055  1.12931  -0.16496 
N  1.88909  -0.01222  0.0 
C  0.4022  2.03598  0.0 
C  -0.43129  3.16525  0.03446 
C  0.1458  4.45571  0.03865 
C  1.54301  4.63438  0.0165 
C  2.39133  3.5231  -0.02231 
C  1.80087  2.2652  -0.06509 
C  3.91641  3.63135  -0.0181 
C  4.46665  4.57424  1.04548 
C  2.37351  -1.37124  0.08068 
C  1.43337  -2.36015  0.05788 
C  1.82463  -3.80238  0.09553 
H  -1.50255  3.08261  0.05681 
H  -0.48504  5.3336  0.06745 
H  1.95956  5.63271  0.04334 
H  4.38656  2.64229  0.19044 
H  4.26815  3.95737  -1.01272 
H  5.57791  4.54671  1.00729 
H  4.14308  5.61213  0.83316 
H  4.13644  4.2705  2.06128 
H  3.43827  -1.55793  0.08755 
H  1.36764  -4.25542  0.99151 
H  1.42575  -4.28528  -0.81886 
H  2.92357  -3.91616  0.12799 
N  0.53689  0.0  -1.90733 
N  -1.89689  0.0  -0.57267 
O  -2.39182  -0.71712  -4.17391 
C  1.90615  0.30463  -2.43273 
H  2.74519  -0.39851  -2.30454 
C  2.0831  1.42087  -3.39956 
H  2.98238  2.03913  -3.39705 
C  1.1677  1.51614  -4.33879 
H  1.31778  2.21061  -5.16638 
C  -0.05706  0.68828  -4.21125 
H  -0.71737  0.72886  -5.0684 
C  -0.37367  0.00101  -3.04747 
C  -2.4902  -0.14444  -1.88552 
C  -3.73314  0.6914  -2.18379 
H  -4.16066  0.72736  -3.17748 
C  -4.34389  1.37841  -1.21121 
H  -5.24112  1.95658  -1.40492 
C  -3.77042  1.41758  0.12551 
H  -4.22581  2.026  0.90494 
C  -2.62283  0.79991  0.37989 
H  -2.20471  1.01407  1.3451 
C  -1.66172  -0.74805  -2.96882 
H  -1.88256  -1.24721  -4.83952 
H  -1.44481  -1.80124  -2.6965 
N  -1.06237  -0.53146  2.79748 
C  0.0  0.0  1.95 
N  1.0356  0.4241  2.91217 
C  -2.26676  -1.26381  2.42841 
H  -2.31606  -1.45195  1.35215 
H  -3.14364  -0.67181  2.77097 
H  -2.28389  -2.25443  2.91893 
C  0.52554  0.252  4.21058 
C  2.36555  0.96853  2.81542 
H  3.10761  0.2656  3.23723 
H  2.41372  1.99388  3.23413 
H  2.71634  1.08875  1.89749 
C  -0.69546  -0.31697  4.15905 
C  -1.53714  -0.68253  5.34242 
H  -2.49351  -0.12495  5.27405 
H  -1.06504  -0.46534  6.3079 
H  -1.76159  -1.77928  5.29866 
C  1.34653  0.64855  5.4263 
H  2.3075  0.09272  5.41463 
H  0.86222  0.49332  6.40526 
H  1.58883  1.7348  5.33865 
