51

Fe  0.0  0.0  0.0 
C  2.4064181551962953  0.7617905026295453  -0.17215765671475258 
C  3.784006511524437  1.1940166418586429  -0.4447796570673045 
C  4.403010561661505  2.4164934666970357  -0.6098228291373995 
H  3.9171800972024267  3.2257882333553365  -0.502696546354111 
C  5.782300797002175  2.4359056607333143  -0.9437164400626101 
H  6.216672028854296  3.272979458391272  -1.0592330631682856 
C  6.510976354786938  1.2786927388485132  -1.1057529943024256 
H  7.434824848215379  1.3307995021079566  -1.3213530091740573 
C  5.89337658006001  0.007657407427263285  -0.9527762819042888 
C  4.531465315062141  0.0022273024247061457  -0.6210991041671957 
C  6.510869963377268  -1.2596735273113182  -1.1274780375167208 
H  7.43386328529433  -1.3112865626004233  -1.3473197584996899 
C  5.7721769913066865  -2.415387031327481  -0.9774768386941411 
H  6.2042233178384665  -3.251969374272699  -1.1041526659172796 
C  4.401739462594886  -2.4020910497543557  -0.6443414056155332 
H  3.91762293742981  -3.2133160773882867  -0.5503558503295166 
C  3.782126520717302  -1.1881628709059833  -0.4595503916141178 
C  2.40315169185161  -0.7590818517248243  -0.17785168673014917 
C  1.208634885416017  2.7774818435949973  0.08982897766074997 
C  0.48344565129371375  3.4764222338748922  -0.8585665967429524 
H  0.043413429576323326  3.014288406600577  -1.5621489370125619 
C  0.4061310086937616  4.8640497899988775  -0.7724628713588743 
H  -0.07319712877356599  5.356135926749157  -1.4281818512963964 
C  1.0317048458713047  5.524702966292595  0.2723602739111878 
C  1.7202368870442746  4.815669798613988  1.2465259094218246 
H  2.1274586809911558  5.275332281707472  1.9721950848530314 
C  1.8141174095007264  3.433209452804297  1.1577089641520697 
H  2.286048805784155  2.940277502115129  1.8183394427039934 
C  0.9254468650412487  7.010576607734154  0.3983930600389121 
C  1.196826935816186  -2.7775898730699344  0.0582749757659763 
C  0.40155129074437923  -3.4320707275974804  -0.8828323132359431 
H  -0.07156066420323093  -2.9347620928448723  -1.5386720801654388 
C  0.3050568230254521  -4.817427601499419  -0.8517091766283834 
H  -0.21065399575322075  -5.275310105471681  -1.505695486844981 
C  0.9643267167412244  -5.526533321833814  0.13663219386516165 
C  1.7263501869994662  -4.868711950267307  1.1080759924896526 
H  2.1609510640356704  -5.364473421372969  1.7904763159410133 
C  1.8415429237390497  -3.4872499329804194  1.0656186233284788 
H  2.357693799241563  -3.030147241104882  1.718469925539115 
C  0.8081326544952219  -7.028821541101546  0.18359069861646815 
F  -0.004075577591852175  7.3712553610522535  1.3108498346569433 
F  0.559805282290438  7.600188501893162  -0.7473253116518555 
F  2.068933605763334  7.570161978109581  0.7951722770533785 
F  0.4537877229525845  -7.530578392002309  -0.9845559582996223 
F  -0.15471711215382267  -7.39798722349228  1.0291542064672368 
F  1.9046972489311798  -7.6433265860033925  0.6128115392331696 
N  1.2865554107771648  1.357083333845052  -3.704939722559546e-16 
N  1.2865554107771648  -1.3570833338450516  -1.1102230246251565e-16 
Cl  -1.5202795795510768  1.5202795795510768  0.0 
Cl  -1.5202795795510768  -1.5202795795510768  0.0 
