106

Pd  0.0  0.0  0.0 
S  -0.01749  -2.12073  0.0 
O  3.77417  -1.32152  0.16554 
N  0.48096  2.13812  0.0 
N  1.93652  -0.01739  0.0 
C  -0.49694  3.20338  0.00362 
H  -1.55884  2.98848  0.11854 
C  0.04827  4.59029  -0.16266 
H  -0.6409  5.42731  -0.20605 
C  1.3683  4.79305  -0.25757 
H  1.74828  5.80265  -0.38244 
C  2.31716  3.65787  -0.20171 
H  3.38304  3.8485  -0.27793 
C  1.85523  2.4028  -0.08064 
C  2.7442  1.20781  -0.04369 
H  3.377  1.19239  -0.95959 
H  3.39503  1.27341  0.85355 
C  2.55432  -1.2415  0.10912 
C  1.75169  -2.54901  0.16912 
H  2.00325  -3.04521  1.13471 
H  2.04801  -3.20292  -0.66918 
C  -0.62792  -2.91459  1.45374 
H  -0.82979  -3.98294  1.25466 
H  -1.59229  -2.42037  1.70207 
H  0.1718  -2.83558  2.20725 
S  0.73337  0.0  -2.01507 
S  -2.09337  0.0  -0.46492 
O  -1.58012  1.78634  -5.20171 
O  -4.25073  1.69365  -3.42229 
C  -3.65408  3.03408  -5.34219 
H  -4.21657  3.55334  -6.14618 
H  -3.25983  3.80635  -4.64507 
C  -2.52979  2.29499  -6.06148 
H  -2.96327  1.48739  -6.69297 
H  -2.02679  3.03799  -6.71754 
C  -0.43269  1.17722  -5.62403 
C  -0.22388  0.85646  -6.98302 
H  -0.96533  1.08126  -7.73697 
C  0.96167  0.25175  -7.39636 
H  1.10744  0.02413  -8.44324 
C  1.956  -0.05113  -6.46847 
H  2.87221  -0.52331  -6.79173 
C  1.77506  0.27136  -5.12197 
H  2.558  0.04479  -4.41166 
C  0.58934  0.88989  -4.69469 
C  0.45334  1.30379  -3.26148 
H  -0.53094  1.77134  -3.04679 
H  1.20436  2.08611  -3.06144 
C  -0.71715  -1.00257  -2.672 
H  -0.65433  -1.16183  -3.76665 
H  -0.58404  -2.0599  -2.38524 
C  -2.10988  -0.49422  -2.24603 
H  -2.84544  -1.30842  -2.43156 
H  -2.29616  0.36292  -2.90508 
C  -3.2811  1.36301  -0.75375 
H  -3.45844  1.93223  0.18302 
H  -2.83776  2.05465  -1.50181 
C  -4.61632  0.8422  -1.2113 
C  -5.45511  0.18929  -0.29197 
H  -5.14413  0.05908  0.73898 
C  -6.71024  -0.27947  -0.68456 
H  -7.36103  -0.76327  0.03156 
C  -7.13441  -0.11678  -2.00077 
H  -8.10359  -0.48519  -2.31454 
C  -6.31408  0.52557  -2.92536 
H  -6.67838  0.63074  -3.94049 
C  -5.05115  1.0277  -2.5422 
C  -4.67572  2.12921  -4.64943 
H  -5.57498  2.76017  -4.47512 
H  -4.95189  1.28111  -5.31636 
S  0.0  0.0  2.23 
C  0.1165  0.54949  5.04432 
C  -0.011  0.08284  6.38735 
C  -0.43315  -1.21176  6.71894 
C  -0.79125  -2.06379  5.68547 
C  -0.70348  -1.6584  4.38416 
C  -0.22127  -0.39447  4.00568 
C  0.60028  2.00031  4.77962 
C  -0.44591  2.79857  3.95481 
C  1.96713  1.98589  4.06639 
C  0.79847  2.81564  6.08827 
C  -0.49062  -1.65821  8.18253 
C  -1.43414  -0.72033  8.95953 
C  0.93377  -1.6008  8.76871 
C  -1.01716  -3.10754  8.34688 
H  0.23875  0.72046  7.20957 
H  -1.13665  -3.07436  5.84899 
H  -1.03511  -2.40535  3.73161 
H  -1.41923  2.81922  4.49053 
H  -0.10969  3.84791  3.80546 
H  -0.63126  2.3966  2.94604 
H  2.70263  1.422  4.68209 
H  1.93602  1.51768  3.07095 
H  2.34617  3.01841  3.92045 
H  -0.15734  2.89009  6.65186 
H  1.5795  2.3624  6.7375 
H  1.12978  3.85212  5.86894 
H  -2.4556  -0.75639  8.52114 
H  -1.48917  -1.02262  10.02515 
H  -1.0859  0.33192  8.93188 
H  1.60768  -2.28217  8.2025 
H  1.3594  -0.57752  8.71013 
H  0.93208  -1.90933  9.83409 
H  -0.35523  -3.83312  7.82292 
H  -1.05249  -3.39975  9.4158 
H  -2.04738  -3.19756  7.93519 
