52

Pd  0.0  0.0  0.0 
C  1.4214034956531316  -2.7657739506898897  -0.2084161148904483 
H  0.5495070577926232  -3.1208779459192026  -0.3351102513701993 
C  2.5109731487839686  -3.6531476599227206  -0.25156065265291205 
H  2.3648705966127306  -4.577759716913237  -0.41309504006567277 
C  3.7698498469904282  -3.1906287708732695  -0.06192957401524013 
H  4.507072815384689  -3.790990702479598  -0.050937033367296804 
C  3.9735431176211526  -1.8015575762443559  0.12089421478688245 
C  5.255334985339075  -1.2270823151156958  0.27617058840293324 
H  6.017435178421449  -1.793557803502779  0.3176564505781344 
C  5.421927444044284  0.12807424093356096  0.36781643554985344 
H  6.292897471329335  0.4952358546933719  0.4687818798976961 
C  4.2999148218735055  0.9758209054796638  0.3130693950776675 
H  4.420327699066242  1.9186241703215092  0.34314983406586685 
C  3.025674018506995  0.4521272665375198  0.21678436214198482 
C  2.832990781924364  -0.9501850927003399  0.11939294840961984 
C  1.541874708155606  2.836069347027343  1.1648831404718885 
C  0.6570583031939052  3.8907433337617663  0.9203953877798806 
H  0.1584190636948819  3.9119069415433394  0.11230601738974656 
C  0.5062805517930271  4.904870246850978  1.85477663964159 
H  -0.08883852899810574  5.6251052132140185  1.682395280712169 
C  1.2230316504177072  4.86820012450987  3.0391881790770428 
H  1.122298267533231  5.566124686407651  3.6756526568544308 
C  2.0871283149043838  3.8156371649827503  3.2989689340503934 
H  2.5684785947429383  3.790548165073345  4.116971586969631 
C  2.252339628571992  2.797481418423363  2.3669982383821613 
H  2.845887233940914  2.077777049337038  2.5464442226751407 
C  1.7569498822430463  2.175789126854623  -1.6619789697733403 
C  2.0976030891677118  3.5077141613465552  -1.8989098143369043 
H  2.2486087578198797  4.097340313011212  -1.1705360645984528 
C  2.214753382839074  3.9700946926662657  -3.2086705684249437 
H  2.440833904391104  4.8775296067876095  -3.3695683446940436 
C  2.00407899255028  3.1139059891475824  -4.275706376279318 
H  2.060355608933048  3.4411658508310423  -5.165798284668242 
C  1.710777596022211  1.7757887262622702  -4.045277251464315 
H  1.5879839266019184  1.182344832177336  -4.777256267094968 
C  1.5976618280057762  1.3056877635979773  -2.742803989578245 
H  1.4111669133962157  0.38723591572619565  -2.587015703864312 
N  1.5395942704167225  -1.456622628720287  1.783848239827903e-16 
P  1.5395942704167225  1.456622628720287  -1.783848239827903e-16 
Br  -1.654629867976521  1.654629867976521  0.0 
C  -1.35204078  -1.31992066  -0.4819701 
C  -1.63807002  -1.59921746  -1.81393823 
H  -1.15796809  -1.15933936  -2.50351594 
C  -2.63068217  -2.5263265  -2.14228996 
H  -2.83682226  -2.69439953  -3.05388981 
C  -3.31015444  -3.19615732  -1.16198741 
H  -3.99601236  -3.81199015  -1.38686634 
C  -2.99747104  -2.9701089  0.1242356 
H  -3.43865917  -3.46858118  0.80170842 
C  -2.03898543  -2.01594063  0.49125628 
H  -1.86191301  -1.84921651  1.41015686 
