56

Ni  0.0  0.0  0.0 
P  1.1974813808573395  1.62669552851786  0.0 
N  1.1974813808573395  -1.62669552851786  0.0 
C  2.7961734638971913  1.0905849536061605  -0.676426555579849 
C  3.8830477709126026  1.967737933365111  -0.6936814345950406 
H  3.785264713077022  2.8259911439533583  -0.34945950020489214 
C  5.109644637970925  1.5750422052456448  -1.21880874376819 
H  5.823859781801189  2.170750592593905  -1.2372338778637966 
C  5.2610114556482195  0.29493540068751223  -1.7130546293658544 
H  6.0797005978885155  0.02809298464208454  -2.064649457793229 
C  4.194974440157408  -0.5997784959727257  -1.6877181985500438 
H  4.313754327601778  -1.4654570082159215  -2.0062448407310685 
C  2.9505763234951425  -0.210705578573942  -1.1901239741118257 
C  1.8300250732304753  -1.2263357693726507  -1.2915579973412692 
H  1.1406471810567447  -0.8625229109582541  -1.8694945906060294 
H  2.178367623207216  -2.023559326126136  -1.7201689846398116 
C  2.240864952094592  -2.0226770466984005  0.9802379560758115 
H  2.7916378103124337  -2.7106449056988273  0.5998603888706406 
H  1.8202056458225089  -2.353000709350615  1.7773749869172701 
H  2.7829651983800336  -1.2611331417190126  1.195372178750914 
C  0.34656943548600583  -2.8099301266689465  -0.273843964626994 
H  0.8955343721386029  -3.5342267939583127  -0.5833607591301971 
H  -0.3015104061895577  -2.588969191633062  -0.9472944260581678 
H  -0.10576222610880714  -3.0721329283134695  0.5317061633778692 
C  0.4326979731271162  2.6713563210315843  -1.3288096243801015 
H  -0.4975153163195063  2.8357442905759815  -1.0654816129457136 
C  0.39415034955655937  1.9245114697969292  -2.6581523751037204 
H  -0.07836273678053751  2.4497988422768597  -3.3070870478970074 
H  -0.05411268997569141  1.0832936905565802  -2.540789752096027 
H  1.2897795113211732  1.7690358011384948  -2.9640752102305754 
C  1.0977334006550905  4.043788860410441  -1.5072002771251172 
H  2.015148367940979  3.9232584467204004  -1.7669050656361471 
H  1.0608373452483308  4.527446214357218  -0.6795633790420038 
H  0.6355086125955465  4.538382944487784  -2.1881353087537136 
C  1.5928634847551353  2.754682550570988  1.3958908481672596 
H  2.113435951572061  3.509552314747953  1.0522965584539987 
C  2.416328948237214  2.03359688368608  2.454848931126849 
H  2.712386717988988  2.665445783483874  3.1141609170591096 
H  3.1771651566784307  1.6209410496766186  2.0411683942595937 
H  1.8763682256943843  1.360283571023357  2.8758014832062817 
C  0.2767593391928973  3.288178570438158  1.9767724839760046 
H  -0.28322418310675723  2.55031113061454  2.231872142935069 
H  -0.17360340892056403  3.817422675992695  1.3150990208180156 
H  0.4634450095798347  3.829345500307378  2.7480814975938466 
Br  -1.5839191898578664  1.5839191898578664  0.0 
C  -1.2937473829822488  -1.2398794889499034  -0.459800567 
C  -1.601562203225019  -1.4938654694550033  -1.7919791134 
H  -1.1309417375171225  -1.0428217585005106  -2.480879663 
C  -2.60218398542082  -2.411889969420291  -2.121542410022 
H  -2.8231586547736818  -2.5626138747145775  -3.032700502 
C  -3.2683208079706407  -3.09759503004543  -1.14306436557 
H  -3.9596020908062854  -3.707191723557817  -1.368328076 
C  -2.9347449854640226  -2.896087320001541  0.14198826503 
H  -3.3668350933519986  -3.405606940434718  0.81710224434 
C  -1.9675509241539992  -1.9516175659140573  0.5112421903 
H  -1.7755298364628027  -1.8022912010877177  1.4301324877 
