94

Ni  0.0  0.0  0.0 
P  1.3831348858661632  1.4720862364345377  1.2102678412222102e-15 
P  2.5487761924251595  1.0935252383032434  -2.73646502355456 
N  1.3831348858661618  -1.4720862364345373  -3.3306690738754696e-16 
N  0.5611982193220263  0.8984807613604899  2.7616473136799273 
N  -0.15862967384435178  1.7184908124861074  -3.9401535905751235 
N  4.8093546309927975  -1.024554509899509  -2.705808648417212 
C  2.8109980035894937  0.4887835642310878  0.4873148385623191 
C  4.020878618987348  1.0547369400454598  0.9097914448837676 
C  5.07444836124548  0.2356368729729823  1.2745874540724578 
C  4.936128179024066  -1.1362240887131487  1.21937940219737 
C  3.746316845635956  -1.7042331491233695  0.7918186951239371 
C  2.673172086170066  -0.8874260217689994  0.43084775178636214 
C  1.598828219302722  -2.262308715395762  -1.2477332365756095 
C  0.87148135396622  -2.3771016370450333  1.0664594309921869 
C  1.1782520389625954  2.732253368010389  1.2779393098033323 
C  1.4418138615378884  4.0778988920102925  1.0465815361716317 
C  1.3122101450023824  4.998589862046595  2.074434144454465 
C  0.8925937935510193  4.591951038732917  3.3212922578614217 
C  0.605548794237563  3.258347587786379  3.5603278493381434 
C  0.7733343090833407  2.3064160974179355  2.5504296323613587 
C  -0.8473832754825215  0.5922872016056466  3.0465468862645393 
C  1.4475854993546802  0.3593335053394635  3.804103641840185 
C  1.8204691035742835  2.3403163532350613  -1.5438076293056238 
C  2.2362164051925237  1.9076947722178406  -4.36481125192568 
C  3.290577375819673  2.212148097646327  -5.235596975427001 
C  3.0495137326609227  2.7225228714909107  -6.510881261447256 
C  1.7547691245714891  2.9457663791511455  -6.919494900611285 
C  0.6907250193190735  2.637152142596396  -6.077542208903882 
C  0.9191134420876312  2.0863130919141497  -4.812409331065053 
C  -0.4802661479860393  0.2873898125185117  -3.9801627944343596 
C  -1.363947774825525  2.522265710800373  -4.058396046093624 
C  4.3547141429479055  1.374685753737765  -2.484589472096402 
C  4.824195985648443  2.6644582059268687  -2.221290571702526 
C  6.126290469891078  2.889808662163371  -1.785897558461658 
C  6.96610149576713  1.8122336697892467  -1.605808950751603 
C  6.5528487557820965  0.5318312053485572  -1.9228192217982816 
C  5.247045094123475  0.28098951831915664  -2.385369170719721 
C  4.373306416152067  -1.2228866984451643  -4.083626774049528 
C  5.669725626243511  -2.1264801782821405  -2.2897980573371144 
H  4.12004180988289  2.0298847774961066  0.9492512559165058 
H  5.923028243376677  0.6289259790529744  1.5674122185324157 
H  5.680139832249496  -1.7143924248708444  1.485611622128412 
H  3.6580635989761103  -2.676780340697949  0.7372625349364951 
H  1.9511856191089079  -1.6763430065598182  -1.9471156504739158 
H  2.237472598074672  -2.9826554340556486  -1.0685668826501602 
H  0.7453373802469179  -2.6453035128782476  -1.539258111584909 
H  0.016377531947327828  -2.763356939843855  0.7852610941754649 
H  1.5184896998107673  -3.096709108931826  1.2239816732699587 
H  0.7426346934437275  -1.8684605252216242  1.894384474359795 
H  1.7223578098803656  4.374400736941041  0.15585790956173076 
H  1.520432948563312  5.940835496622695  1.9114401930344411 
H  0.794729782349817  5.2446195517726615  4.042971298292908 
H  0.28808359575563536  2.976274887340703  4.4439303048667185 
H  -1.4042329354223946  0.876307179275341  2.2863714798553465 
H  -0.9542356373707901  -0.36922748412923556  3.184567507459533 
H  -1.1319955616653066  1.073776704365168  3.8511228399732222 
H  1.2787394684368771  0.8257038734660118  4.6497401107657 
H  1.2715100344147052  -0.5971456839574163  3.9189541145782463 
H  2.3817675320481917  0.4909341855205489  3.539465528998275 
H  1.019087348723882  2.745559962770385  -1.9356132953234813 
H  2.4795025593190587  3.0421982161499233  -1.354601987951375 
H  4.216869701589971  2.0603850219034916  -4.945951077717133 
H  3.7978799576978814  2.92375816441607  -7.109304389430522 
H  1.5828756845649203  3.320369473964146  -7.811002358033427 
H  -0.22804672285651728  2.810333902394295  -6.369455438910599 
H  -0.9249635756240573  0.07553038317191474  -4.829330057138877 
H  0.344135429593289  -0.23707233575206232  -3.9061366239528996 
H  -1.0776650309417568  0.0643989055489127  -3.2366326201628906 
H  -1.1254265807218067  3.471936858046486  -4.030740268187564 
H  -1.8068370062809844  2.3230041779227486  -4.9106686962333 
H  -1.9695055140475506  2.3133001030890616  -3.318418905053325 
H  4.219198147849748  3.4256450761431023  -2.3474942755678567 
H  6.4407125500162605  3.801867984348132  -1.6025949170578104 
H  7.869657919216718  1.9541373095555898  -1.2524505821454066 
H  7.179474744880314  -0.21540229414005596  -1.8251913209260962 
H  5.152852255062971  -1.2510765992627353  -4.672491023710381 
H  3.8791394576151124  -2.067104954306336  -4.150647394466434 
H  3.7867976649325374  -0.4827452155392804  -4.352291193027567 
H  5.9561382335472235  -1.9902911629663147  -1.3626205767624344 
H  5.175701307947222  -2.97215223823918  -2.3572137820599877 
H  6.458366774734884  -2.16466746215768  -2.872482689240591 
Br  -1.5839191898578664  1.5839191898578664  0.0 
C  -1.2937473829822488  -1.2398794889499034  -0.4598005675376139 
C  -1.601562203225019  -1.4938654694550033  -1.7919791134336869 
H  -1.1309417375171225  -1.0428217585005106  -2.480879663633267 
C  -2.60218398542082  -2.411889969420291  -2.121542410022959 
H  -2.8231586547736818  -2.5626138747145775  -3.03270050271447 
C  -3.2683208079706407  -3.09759503004543  -1.143064365570095 
H  -3.9596020908062854  -3.707191723557817  -1.3683280760515548 
C  -2.9347449854640226  -2.896087320001541  0.14198826503765638 
H  -3.3668350933519986  -3.405606940434718  0.8171022443470677 
C  -1.9675509241539992  -1.9516175659140573  0.5112421903797603 
H  -1.7755298364628027  -1.8022912010877177  1.4301324877763764 
