97

Pd  0.0  0.0  0.0 
S  0.00732  2.12715  0.0 
N  0.46893  -2.11295  0.0 
N  1.92375  -0.0142  0.0 
N  2.57787  1.18775  -0.27579 
H  3.52416  1.17911  0.17308 
N  2.37605  3.49501  -0.3721 
H  3.36143  3.60788  -0.03636 
C  -0.48173  -3.21094  0.06081 
H  -1.56964  -3.01252  0.10897 
C  0.11878  -4.59643  -0.05958 
H  -0.53039  -5.46215  -0.07727 
C  1.44298  -4.77177  -0.15645 
H  1.87211  -5.76752  -0.22425 
C  2.36001  -3.61238  -0.15069 
H  3.43536  -3.76687  -0.21878 
C  1.85696  -2.37782  -0.09551 
C  2.67017  -1.20757  -0.13137 
H  3.75333  -1.22141  -0.18468 
C  1.8233  2.30844  0.27755 
C  1.65863  4.77399  -0.30314 
H  0.68031  4.68774  -0.82675 
C  2.52624  5.79054  -1.06667 
H  2.66668  5.44025  -2.11262 
H  3.5284  5.85287  -0.58463 
C  1.89914  7.17824  -1.07138 
H  2.58015  7.87687  -1.60333 
H  0.93083  7.14173  -1.61512 
C  1.67574  7.65668  0.36676 
H  2.65446  7.73718  0.89053 
H  1.20709  8.66307  0.34621 
C  0.77328  6.66838  1.12175 
H  -0.21886  6.62415  0.61944 
H  0.61806  7.03053  2.16065 
C  1.40951  5.26366  1.14387 
H  0.72732  4.56676  1.67825 
H  2.36918  5.30843  1.70243 
S  -2.85265  -0.5059  -1.404 
S  -0.40329  -1.27313  -4.37487 
O  -2.02745  0.0  0.02745 
O  -4.11198  -1.66556  -1.24735 
N  0.02745  0.0  -2.02745 
N  -1.67028  -1.63841  -1.93502 
C  -3.80487  0.96548  -1.66748 
C  1.18147  0.17739  -2.82011 
H  2.07429  0.67875  -2.50536 
C  -1.0028  -0.67007  -2.76438 
C  1.10695  -0.38173  -4.06961 
H  1.91608  -0.33021  -4.7846 
C  -3.06434  2.11718  -1.95364 
H  -1.98482  2.10347  -1.90399 
N  -5.73829  4.47401  -2.93385 
H  -6.75757  4.48293  -3.07477 
H  -5.19976  5.33813  -3.09014 
C  -5.08986  3.29857  -2.49881 
C  -5.19436  0.97429  -1.80032 
H  -5.77882  0.08137  -1.62687 
C  -3.69869  3.28132  -2.36057 
H  -3.1006  4.15351  -2.5991 
C  -5.83473  2.14143  -2.2188 
H  -6.90721  2.13544  -2.34946 
S  0.0  0.0  2.23 
S  1.17088  1.02769  3.64948 
C  0.34874  0.32252  5.26227 
C  1.43573  0.59631  6.32152 
C  1.8482  1.93368  6.48817 
H  1.38017  2.72101  5.91178 
C  2.86878  2.27047  7.37111 
H  3.17687  3.30246  7.45921 
C  3.49615  1.28034  8.12341 
H  4.30104  1.5459  8.79545 
C  3.08246  -0.04792  8.01186 
H  3.56753  -0.81121  8.60797 
C  2.05584  -0.39553  7.12531 
H  1.77842  -1.43868  7.08153 
C  -0.93477  1.10191  5.67627 
C  -1.29511  1.28614  7.04209 
H  -0.66559  0.92291  7.84503 
C  -2.49152  1.9258  7.39532 
H  -2.75448  2.06086  8.4384 
C  -3.36004  2.38114  6.40494 
H  -4.28796  2.87096  6.67424 
C  -3.03977  2.19038  5.06309 
H  -3.72081  2.52649  4.2927 
C  -1.84873  1.55613  4.70334 
H  -1.6641  1.41815  3.65798 
C  -0.00071  -1.20884  5.20547 
C  0.94263  -2.14232  4.74847 
H  1.90179  -1.80581  4.37834 
C  0.66606  -3.51887  4.74984 
H  1.40877  -4.21842  4.39041 
C  -0.55104  -4.00006  5.23584 
H  -0.74154  -5.07176  5.25377 
C  -1.50454  -3.11002  5.71527 
H  -2.44158  -3.48697  6.11531 
C  -1.24619  -1.73288  5.70356 
H  -2.01929  -1.11012  6.11261 
