50

Fe  0.0  0.0  0.0 
O  -1.8548584909244288  -0.47154558257835394  -0.0581816579463767 
O  -0.6089076650208154  1.8279167721781318  0.057869660391077465 
N  0.6097627389703794  -1.8106563310104535  0.05887920906485358 
N  1.854003416974865  0.4542851414106755  -0.05856721150955435 
C  -2.3456013696094664  -1.6506168057093795  0.19894610757930253 
C  -3.742640225726928  -1.8054055853408852  0.26540841417636785 
H  -4.283778096611592  -1.0645562190508648  0.1143759965896574 
C  -4.333117760534983  -3.011291393055855  0.5438996162611291 
H  -5.261058065526337  -3.0771257623622583  0.5747856355997056 
C  -3.563146737858424  -4.128394390645362  0.7749159295702785 
H  -3.9660308672240383  -4.938654203495033  0.9848741730048456 
C  -2.22045575386848  -4.040199541981925  0.6996350543007396 
H  -1.710873913029244  -4.806429124349986  0.8417410168461705 
C  -1.548974569495687  -2.8171315839180533  0.4065232343569085 
C  -0.14417318052220426  -2.830036012074086  0.29920653820883825 
H  0.28056440318213144  -3.650812242787255  0.41149480155493745 
C  2.0152002047575377  -1.9050027606237134  -0.09571005634836112 
C  2.721373377211399  -3.099146780680936  -0.22208145290636475 
H  2.2682227429337334  -3.9117011718197645  -0.21978927168323042 
C  4.090201059293717  -3.0722111304018713  -0.34820879930353116 
H  4.563700966683063  -3.870161858837787  -0.42244155953018986 
C  4.764951437098399  -1.8646642005261798  -0.3657370564968131 
H  5.692166923789345  -1.8553314778806995  -0.44466158708454806 
C  4.076495327078013  -0.6746208401613598  -0.26734815962728214 
H  4.5321524178889385  0.13480307271376074  -0.29042032596800893 
C  2.691148745355841  -0.6897291593244217  -0.12970776874306628 
C  2.3340768381146915  1.6648169827713208  -0.06680015552160463 
H  3.258071332786994  1.7536262072478843  -0.12255637009134564 
C  1.569020658859594  2.8634369239273774  0.002262274544563524 
C  2.265044969399799  4.077664915300859  -0.010413848764829897 
H  3.1946488975478005  4.0577415032602255  -0.06975308051302212 
C  1.643847671375211  5.288964211776275  0.060986580401325145 
H  2.1300322282812187  6.081094893712078  0.060613268161479335 
C  0.2536003427472882  5.299025196165271  0.1349808493418571 
H  -0.19696637969879469  6.112864586773991  0.17167710143687792 
C  -0.4576589530238652  4.156650950380073  0.15476080752737573 
H  -1.382330495930193  4.206193831848732  0.22639551025597188 
C  0.14457485540970036  2.886939187190585  0.06966440103542572 
I  0.0  0.0  2.49 
C  -9.906509232948061e-17  1.9857302067079894e-16  -1.91 
N  0.5499990248356542  -1.1463521857289802  -2.496826174394272 
C  0.6743677230282423  -1.2411141348673782  -3.783011748059819 
F  1.2198961508270876  -2.3227109534723365  -4.31489935502858 
C  0.1646471592745782  -0.31380386755474216  -4.678744824943334 
F  0.24898967731117538  -0.49879916626858445  -5.987036676597628 
C  -0.4218336332755277  0.7881221848542681  -4.171532024442303 
F  -0.9162904099102177  1.7516543956866182  -4.965313899221865 
C  -0.43977245231126055  0.9513592935090518  -2.7883271570673984 
F  -1.0800032397797286  2.0316444338420823  -2.2558129935438807 
