83

Ni  0.0  0.0  0.0 
P  1.2618195255265305  -1.5773114736791842  1.9051747419480183e-15 
N  2.7887277298102666  -0.9923172823621713  -0.38948443077537775 
N  1.2618195255265299  1.5773114736791842  -5.262318521375077e-16 
C  3.372055157240896  0.18425936782294142  0.30998982082102877 
C  2.3732144482102937  1.1630363061526288  0.9156879989404942 
C  3.118238998336568  2.369482868391386  1.460905682229879 
C  4.1121180803870505  1.9920602857664125  2.540965224286353 
C  5.08530932339818  0.9475710187498414  2.021224446962071 
C  4.346658411116298  -0.22660812462504226  1.4228135270678979 
C  3.816221532633806  -1.8713731651966452  -0.9881107416015535 
C  4.629082065762024  -1.234427598791452  -2.0774925062365814 
C  6.005037165833517  -1.306990486280647  -2.0370438975272775 
C  6.785858917836148  -0.8295072671652431  -3.080749779020144 
C  6.168129894008141  -0.25199113912034093  -4.179905047837295 
C  4.80714672202182  -0.1590764628210873  -4.224634551504765 
C  4.034675185165209  -0.656243251426785  -3.1683044472977735 
C  1.6956008818533248  2.132768800668868  -1.3031309039374344 
C  0.5323888588542031  2.7032880291259813  -2.066078824513283 
C  -0.00139521175707924  3.9346038011908115  -1.7228884758348135 
C  -1.1443663881506163  4.412511885661718  -2.382296818768808 
C  -1.7193257154727686  3.663630758052388  -3.3765702814720564 
C  -1.1799159822961212  2.4633795891541777  -3.7087518904042396 
C  -0.05778393427785811  1.9766850980468749  -3.071161654330815 
C  1.3133294330362522  -2.4910458432379152  1.5724641176559488 
C  2.3954140517628533  -3.291150842193044  1.9151646845686967 
C  2.4020272737834114  -3.9813899409174596  3.108268549237102 
C  1.3566603359240292  -3.8885767537677323  3.963261676415106 
C  0.29871867872461166  -3.0838114894670037  3.651790892332281 
C  0.27038563865216547  -2.3706350536321126  2.4753537030994215 
C  0.9600711397771649  -2.8521513442785076  -1.2566734285517458 
C  0.6603207992040804  -2.433658113223588  -2.5367783456923525 
C  0.45397951468426  -3.35167060737128  -3.546661400749458 
C  0.47561211918345403  -4.685102237773394  -3.2536145316896885 
C  0.7364784190477132  -5.112532809509114  -1.9966309319793083 
C  0.9775081915260524  -4.200783960915812  -0.9976481313927077 
H  0.9405824431084753  2.192989965977732  0.4046070204538333 
H  3.891243150232164  0.6820966486032329  -0.3546551970637013 
H  1.9600272695225316  0.7129917861922166  1.680724348025732 
H  3.5893668071742826  2.8074588335243886  0.7353625396769418 
H  2.47798995161161  3.0004438527038757  1.8261148338720843 
H  3.6385517853206166  1.6386783765485449  3.310679392282891 
H  4.601395133951148  2.7796285947082042  2.8235194024649775 
H  5.658989300661414  1.345640265361882  1.3483269743936306 
H  5.648961676470639  0.6378233892214887  2.749176005018981 
H  3.851697481121869  -0.6790229690663125  2.1231925860839835 
H  4.989262661527455  -0.8556988156890325  1.0615394762835093 
H  3.3798449368508225  -2.659749672152128  -1.3477531055320722 
H  4.418869510810984  -2.166292337955174  -0.2858348158156779 
H  6.418487203074386  -1.68521530107163  -1.294172908605329 
H  7.7122813569762965  -0.8970220363006  -3.043719248288547 
H  6.6803921681529825  0.07191142770008792  -4.885367215281507 
H  4.391186136879084  0.23588828282097168  -4.957049830774385 
H  3.1066848904490083  -0.5956839728099927  -3.207827563140992 
H  2.112226810540905  1.4321511208758604  -1.8286494310196784 
H  2.3539565813788865  2.8279361936013188  -1.1528599529664825 
H  0.39830882013882185  4.4448977338929785  -1.0557629335764442 
H  -1.5102738522568329  5.2345048126362075  -2.144966488395153 
H  -2.4748893747027894  3.976676965627513  -3.8203967439253264 
H  -1.5765289476874198  1.9573701431325259  -4.381344468582441 
H  0.298920841646407  1.155329572129042  -3.3224072371318867 
H  3.1211586039772894  -3.361062826503146  1.3361832518949792 
H  3.1296664047008758  -4.516609448343489  3.327495221948968 
H  1.3597600494210607  -4.370796348750974  4.75927217508357 
H  -0.41520962654291105  -3.014945836225648  4.243843725060478 
H  -0.4455763015849519  -1.8093857634490773  2.2864577677250746 
H  0.5947019105968516  -1.5238382463506195  -2.7208051679254397 
H  0.3031185201213167  -3.066287854813205  -4.417495767814666 
H  0.3070022552531745  -5.305707480513866  -3.9257080121434536 
H  0.754268156417177  -6.023126889351667  -1.8084300366572685 
H  1.155159953802665  -4.5010940346738515  -0.13534194391666285 
Br  -1.5839191898578664  1.5839191898578664  0.0 
C  -1.2937473829822488  -1.2398794889499034  -0.4598005675376139 
C  -1.601562203225019  -1.4938654694550033  -1.7919791134336869 
H  -1.1309417375171225  -1.0428217585005106  -2.480879663633267 
C  -2.60218398542082  -2.411889969420291  -2.121542410022959 
H  -2.8231586547736818  -2.5626138747145775  -3.03270050271447 
C  -3.2683208079706407  -3.09759503004543  -1.143064365570095 
H  -3.9596020908062854  -3.707191723557817  -1.3683280760515548 
C  -2.9347449854640226  -2.896087320001541  0.14198826503765638 
H  -3.3668350933519986  -3.405606940434718  0.8171022443470677 
C  -1.9675509241539992  -1.9516175659140573  0.5112421903797603 
H  -1.7755298364628027  -1.8022912010877177  1.4301324877763764 
