58

Fe  0.0  0.0  0.0 
S  0.22989999518340443  2.288747961721844  -1.3988810110276971e-14 
S  0.13855506940222007  -2.2730378853488  1.521005543736464e-14 
N  2.0315449354143755  -0.015710076373044446  -1.221245327087672e-15 
C  2.7324072972337135  1.1540528845523221  0.028978182001961447 
C  4.117017097208587  1.143172183204521  0.03408329235527407 
H  4.597815842124974  1.9627902603509695  0.05046207440962291 
C  4.796937233494635  -0.05347803611509083  0.016354477530585717 
H  5.745883733360495  -0.06512178033746929  0.022921334679688595 
C  4.0847365877173605  -1.240077082264119  -0.012049638943069539 
H  4.539499005817455  -2.0741551729251997  -0.02203872112919014 
C  2.6917308002540796  -1.1919145253984382  -0.02625753146660603 
C  1.920467019550107  2.4008236000290246  0.013071626599221895 
N  2.5722476408928454  3.549055863251424  0.017844606511320023 
H  3.3864926109157674  3.5285417905852263  0.08320997666262951 
C  2.0458897847827275  4.878835825017083  -0.050294079986775035 
C  2.6996298427748924  5.8370896535543455  0.7227945544336779 
H  3.410500663793221  5.583899670265761  1.3017477806852085 
C  2.304210027023868  7.16159850519238  0.6406292865650952 
H  2.7427743528583353  7.819204538174564  1.1681441086230098 
C  1.2748419430823088  7.533786779291088  -0.20767827934830138 
H  1.0177227146403351  8.445837920295585  -0.27453490622851356 
C  0.620883606898927  6.5680373749988235  -0.959987147198068 
H  -0.10137902510998109  6.819531389618575  -1.5224040397377614 
C  1.0149839306701296  5.231192470553929  -0.8952443000011808 
H  0.5794560680967462  4.573704469085465  -1.4266341652105805 
C  1.881271028680809  -2.4409033848767367  -0.06579292776540102 
N  2.550191413009836  -3.530074102097193  -0.16444326065173756 
C  1.9092419996549908  -4.78770859125053  -0.22974572011619163 
C  2.1941479327727844  -5.601548958987064  -1.3239612542394912 
H  2.7458951212985543  -5.277074046390145  -2.026279024945265 
C  1.674299122292833  -6.885653880911638  -1.390248686922203 
H  1.8415507424485724  -7.423118757392929  -2.155802585811255 
C  0.9111080019997495  -7.392885169562726  -0.34801024792700636 
H  0.5669018544121764  -8.277544000618258  -0.3923057397786586 
C  0.6549335135990118  -6.595108256828649  0.75918216940663 
H  0.14812482879211086  -6.942521314221233  1.4837569029969178 
C  1.1353243318357829  -5.292016190334684  0.8136473692529366 
H  0.9350627845228374  -4.7435822567727435  1.5634366084299194 
S  -1.9263141705166775  -2.7269853042355408e-15  -0.07368582948332225 
N  -0.07368582948332247  2.220446049250313e-16  -1.9263141705166777 
N  -2.3487133445666153  0.015988491710559168  -2.697050016151811 
C  -1.4510979550053376  0.02367577727406656  -1.7286296642056802 
C  0.3088069854998424  0.04743219966100271  -3.1698667761275545 
C  -0.5305152064865459  0.03340267169065689  -4.26865341619199 
C  -1.889262372215308  0.02870902632137166  -3.9396216406486384 
H  1.2636834926587368  0.08085225637195494  -3.3454773848204082 
H  -0.21459012306020842  0.014594157256623157  -5.210218066891472 
H  -2.5443109026264636  0.007646639398507075  -4.675989163468115 
O  0.0  0.0  1.79 
H  -0.7799479569982813  0.24263578966955565  1.870032293142445 
C  0.5735774855227774  -0.1556322990426242  3.059468233393839 
H  1.3213345491191553  0.456962080327498  3.138686919357805 
H  0.9218078765037079  -1.0576332765460363  3.1352997662819324 
C  -0.35805425298462806  0.08817027036050606  4.183278965215751 
H  0.1111624320511224  -0.00817205294049761  5.014497564156503 
H  -1.077629193871375  -0.5444937523304195  4.143579861442836 
H  -0.7122509393424786  0.9781632405020171  4.117888748273069 
