69

Pd  0.0  0.0  0.0 
P  1.5999143766151986  1.3900985531608905  -9.444744152922703e-17 
N  1.5999143766151986  -1.3900985531608905  0.0 
C  3.1038921908861172  0.4190055706306359  -0.47846443280710926 
C  2.827584221294356  -0.9682111670712781  -0.10777511736930706 
C  1.9124263675030841  2.067710027439563  1.6153310265940042 
C  0.9652682434458975  1.843953852531869  2.6359150712582338 
C  1.2276569425066985  2.407070196491836  3.889597081885473 
C  2.401499296854263  3.0818934296122213  4.153276226265083 
C  3.339211391855354  3.3090610389029065  3.1178599649586225 
C  3.067283926619879  2.7584681343497452  1.8962295596778933 
C  1.5408837506198525  2.781526866356274  -1.1387366440195406 
C  1.1863183897044653  4.084417449820091  -0.6654310953934323 
C  1.1418420331660601  5.12595486219119  -1.5280640256368816 
C  1.4815178740989337  4.9438474609394  -2.89618490753874 
C  1.7773316950104523  3.6664105475909468  -3.3769969350219387 
C  1.784189638735481  2.6078152870938407  -2.4955702602151493 
C  4.0438470416181485  -1.888230857108304  0.054102187532377166 
C  4.847947454464123  -2.1762934941705945  -1.055082167383282 
C  6.040812842831742  -2.894367099621264  -0.8153049324553328 
C  6.34295847635743  -3.3129824407255355  0.39288230151692494 
C  5.555045310135002  -3.0592350720962154  1.5181067748586317 
C  4.431469624243885  -2.3198848924539193  1.3387986603260253 
C  1.3830418295546567  -2.751927619665138  0.4628319586584841 
C  1.404117738305169  -3.750253487888224  -0.5044190723086526 
C  1.2457865955009066  -5.155530067421433  -0.012930044726402329 
C  0.9973525178516409  -5.256063795538928  1.4082372566753012 
C  0.8326314418847148  -4.2309865002926  2.209651117238479 
C  1.068266995454249  -2.9157240494090995  1.7836744146009962 
C  1.6299466922322985  -3.5570649082804318  -1.9484970017422936 
C  0.8912296777881422  -1.8038708059929724  2.718754744443635 
H  3.262037224167116  0.48927767096329  -1.4635136855672997 
H  3.90638444087658  0.7577201127969886  0.01211613919946053 
H  0.14548654339985134  1.3008408025374791  2.472790244222571 
H  0.5453470845228774  2.3231741808209954  4.6162378296093305 
H  2.5915303086277923  3.411205969330415  5.08032981465612 
H  4.1655342860257925  3.854457621235908  3.272775756759513 
H  3.7500477757579347  2.859090985644671  1.16997203778398 
H  0.9714528339388886  4.225977078489976  0.3003765119882973 
H  0.872382760913474  6.03175377992754  -1.2004438320822566 
H  1.5024067469468394  5.726441578116422  -3.515653908176443 
H  1.9842835201779379  3.523232558845163  -4.344415063650196 
H  1.9688636405926891  1.6871288853349076  -2.8421029032002414 
H  4.590335997499868  -1.8852339293073743  -1.976554959679615 
H  6.660484990666976  -3.093443042381397  -1.5764882337773325 
H  7.181888152776486  -3.840665599111717  0.5163938085880906 
H  5.816666163453595  -3.391712387426899  2.424491005689763 
H  3.8658159991557994  -2.0834212012626985  2.129044058397377 
H  1.3024984130242  -5.94877203036906  -0.6114511287094231 
H  0.9534735945947198  -6.1654183172925325  1.8103611229902585 
H  0.5290526404335734  -4.395402249435206  3.147263543960417 
H  1.5921294080964625  -4.442887605671212  -2.4105238860335865 
H  2.5310885550023245  -3.144801393800194  -2.0923664140292204 
H  0.9252922340796155  -2.9552005526219256  -2.3214866155297864 
H  0.6659830185453404  -2.1663913365367335  3.6240207481322084 
H  1.739123881352073  -1.2765458200535342  2.7704349027896065 
H  0.1495700871983443  -1.2166763670490983  2.3996792634684136 
Br  -1.654629867976521  1.654629867976521  0.0 
C  -1.35204078  -1.31992066  -0.4819701 
C  -1.63807002  -1.59921746  -1.81393823 
H  -1.15796809  -1.15933936  -2.50351594 
C  -2.63068217  -2.5263265  -2.14228996 
H  -2.83682226  -2.69439953  -3.05388981 
C  -3.31015444  -3.19615732  -1.16198741 
H  -3.99601236  -3.81199015  -1.38686634 
C  -2.99747104  -2.9701089  0.1242356 
H  -3.43865917  -3.46858118  0.80170842 
C  -2.03898543  -2.01594063  0.49125628 
H  -1.86191301  -1.84921651  1.41015686 
