52

Pd  0.0  0.0  0.0 
C  1.4214034956531316  2.7657739506898897  0.20841611489044864 
H  0.5495070577926232  3.1208779459192026  0.3351102513701997 
C  2.5109731487839686  3.6531476599227206  0.2515606526529125 
H  2.3648705966127306  4.577759716913237  0.4130950400656733 
C  3.7698498469904282  3.1906287708732695  0.06192957401524052 
H  4.507072815384689  3.790990702479598  0.05093703336729727 
C  3.9735431176211526  1.8015575762443559  -0.12089421478688223 
C  5.255334985339075  1.2270823151156958  -0.27617058840293307 
H  6.017435178421449  1.793557803502779  -0.3176564505781342 
C  5.421927444044284  -0.1280742409335609  -0.36781643554985344 
H  6.292897471329335  -0.49523585469337184  -0.46878187989769615 
C  4.2999148218735055  -0.9758209054796638  -0.3130693950776676 
H  4.420327699066242  -1.9186241703215092  -0.3431498340658671 
C  3.025674018506995  -0.4521272665375198  -0.21678436214198488 
C  2.832990781924364  0.9501850927003399  -0.11939294840961973 
C  1.541874708155606  -2.836069347027343  -1.164883140471889 
C  0.6570583031939052  -3.8907433337617663  -0.9203953877798811 
H  0.1584190636948819  -3.9119069415433394  -0.11230601738974705 
C  0.5062805517930271  -4.904870246850978  -1.8547766396415906 
H  -0.08883852899810574  -5.6251052132140185  -1.6823952807121696 
C  1.2230316504177072  -4.86820012450987  -3.039188179077043 
H  1.122298267533231  -5.56612468640765  -3.6756526568544317 
C  2.0871283149043838  -3.81563716498275  -3.298968934050394 
H  2.5684785947429383  -3.7905481650733446  -4.1169715869696315 
C  2.252339628571992  -2.7974814184233625  -2.3669982383821617 
H  2.845887233940914  -2.0777770493370378  -2.546444222675141 
C  1.7569498822430463  -2.175789126854623  1.66197896977334 
C  2.0976030891677118  -3.5077141613465557  1.8989098143369039 
H  2.2486087578198797  -4.097340313011212  1.1705360645984524 
C  2.214753382839074  -3.970094692666266  3.2086705684249432 
H  2.440833904391104  -4.8775296067876095  3.369568344694043 
C  2.00407899255028  -3.113905989147583  4.275706376279318 
H  2.060355608933048  -3.4411658508310428  5.165798284668242 
C  1.710777596022211  -1.7757887262622707  4.045277251464315 
H  1.5879839266019184  -1.1823448321773367  4.777256267094968 
C  1.5976618280057762  -1.3056877635979778  2.742803989578245 
H  1.4111669133962157  -0.387235915726196  2.587015703864312 
N  1.5395942704167225  1.456622628720287  0.0 
P  1.5395942704167225  -1.456622628720287  0.0 
Br  -1.654629867976521  1.654629867976521  0.0 
C  -1.35204078  -1.31992066  -0.4819701 
C  -1.63807002  -1.59921746  -1.81393823 
H  -1.15796809  -1.15933936  -2.50351594 
C  -2.63068217  -2.5263265  -2.14228996 
H  -2.83682226  -2.69439953  -3.05388981 
C  -3.31015444  -3.19615732  -1.16198741 
H  -3.99601236  -3.81199015  -1.38686634 
C  -2.99747104  -2.9701089  0.1242356 
H  -3.43865917  -3.46858118  0.80170842 
C  -2.03898543  -2.01594063  0.49125628 
H  -1.86191301  -1.84921651  1.41015686 
