41

Fe  0.0  0.0  0.0 
N  1.1929162837349483  1.440087059868257  0.0 
H  1.1742903105766238  1.4471006775039321  -0.9105090896260088 
H  0.9436229139870604  2.2680146506550765  0.28431753412985045 
C  2.5479975221435915  1.1998027120374701  0.4266680202458064 
C  3.3321596871744434  0.3517985225465101  -0.3028501450797305 
C  4.649398404463561  0.05081324042082214  0.1826432962954121 
C  5.547077373036428  -0.8749857040693589  -0.47905966860862303 
H  5.301854094881952  -1.301405944284682  -1.2909407082849333 
C  6.779736247983907  -1.1171378139785353  0.11953460440094998 
H  7.367647500686129  -1.7336263963293954  -0.30108812058797874 
C  7.183542066587428  -0.5296772266461309  1.262945317658907 
H  8.025826740345165  -0.7657340383996509  1.6346405153378 
C  6.378608463230481  0.43763460388127906  1.9211329555772625 
H  6.681509539440256  0.8930724439102022  2.6982043627856376 
C  5.109137168646285  0.6851367445036713  1.3618049904136662 
C  4.242677136451253  1.5829631301655784  2.073144876697205 
H  4.535899871154637  2.0085175893911646  2.869837019300766 
C  2.9970786603679995  1.8131310896154214  1.591278093424251 
H  2.4199055866307493  2.406981769780713  2.057413419933559 
N  1.1929162837349483  -1.440087059868257  0.0 
H  1.898939943502881  -1.4471006775039321  0.5752428365617204 
H  0.8153906855937891  -2.2680146506550765  0.021402503640856996 
C  1.690968609985947  -1.1998027120374695  -1.330501650695535 
C  2.7486152046313714  -0.3517985225465097  -1.499293639370187 
C  3.1770142840645117  -0.05081324042082169  -2.8361915220390888 
C  4.251109694262739  0.8749857040693592  -3.136187178960932 
H  4.73990615896429  1.3014059442846826  -2.4431047200644618 
C  4.538311551607222  1.117137813978535  -4.4760670611908555 
H  5.231721091309069  1.7336263963293954  -4.6803862430644445 
C  3.885899299797344  0.5296772266461314  -5.498224315246956 
H  4.111561711852284  0.7657340383996505  -6.390792109540644 
C  2.8716737534447234  -0.43763460388127906  -5.2691487520642095 
H  2.44581765170127  -0.8930724439102016  -5.986250986391843 
C  2.530865634679341  -0.6851367445036707  -3.9244350403132975 
C  1.4368760930866205  -1.5829631301655787  -3.6795997812204853 
H  0.98960005884754  -2.008517589391164  -4.4011551092643835 
C  1.0497253046627804  -1.8131310896154211  -2.4013879726904777 
H  0.3270624286421493  -2.4069817697807134  -2.2335509467134154 
Cl  -1.5202795795510768  1.5202795795510768  0.0 
Cl  -1.5202795795510768  -1.5202795795510768  0.0 
