58

Pd  0.0  0.0  0.0 
P  1.4324620335282872  -1.5620987556809591  2.3916641421402636e-15 
C  2.998707384805752  -0.6824961601324937  0.38479701597881383 
H  3.673952056415685  -1.3403371969189528  0.6889345239947007 
H  3.340779562818345  -0.25612819678970095  -0.44015697962618855 
N  2.828624550473145  0.3428245689028479  1.4203045109182986 
C  2.3796966321635886  1.5612003713791363  0.9737884103099055 
N  1.4324620335282887  1.5620987556809587  -8.027962164715928e-17 
C  1.1466940389232005  2.7408879604628877  -0.6145926325209077 
H  0.5534881873485584  2.7325757843262783  -1.3561312595562782 
C  1.6773008365787294  3.946164904800032  -0.21235128241991083 
H  1.4701812023852718  4.748284306946147  -0.6770363928251516 
C  2.52414574061011  3.958974094953491  0.8898367837302085 
H  2.845503224922406  4.783795883789966  1.2357319758579248 
C  2.8947855435352094  2.773466390485268  1.4779417226094265 
H  3.4915313026638137  2.770603543316525  2.216500767688521 
C  3.8244035273629624  0.3200302482041682  2.492663866791231 
H  4.683004594452685  0.6447423562929315  2.1488750443246554 
H  3.930695496229044  -0.5979133675788927  2.820443084554789 
H  3.5273076132991044  0.8964585640999039  3.227309900252365 
C  1.7512405474233246  -2.3031145498427037  -1.6930646094823942 
C  2.046202192826536  -1.1290280951098879  -2.6433410506056982 
H  2.2229555364495424  -1.4739791380835456  -3.5439249575624565 
H  2.8310373646758973  -0.6383303897232305  -2.3216396596287967 
H  1.2731577747392824  -0.5281145859055335  -2.669545479999482 
C  0.5166587980841252  -3.0448540722552324  -2.213848677105306 
H  0.7107628461098026  -3.4238219370250484  -3.0961083135003125 
H  -0.23359457959539065  -2.4196296416946645  -2.2863370948745954 
H  0.2824223051830377  -3.7657425569970977  -1.592237956509206 
C  2.963089569876179  -3.2488249760417247  -1.689829403378086 
H  3.094954507924216  -3.613113051895121  -2.590312293778922 
H  2.803146881889306  -3.9829678276568137  -1.059999053218621 
H  3.7639169020574395  -2.753306551111816  -1.4170210739846465 
C  1.257967549629191  -2.8371384692435946  1.370428547545239 
C  0.29254881764344454  -3.978778995179863  1.0093196422673216 
H  0.24325238867807442  -4.613268848267248  1.7550464343436374 
H  0.6175419430571875  -4.440707261479163  0.20758125274893224 
H  -0.5980430250161781  -3.6105091096122095  0.8354773540513876 
C  2.6074627567643303  -3.4502268425087754  1.7646030171477092 
H  2.471010205758419  -4.10978308775453  2.477077796126817 
H  3.2058910111843746  -2.7433632681128937  2.0848908275683935 
H  3.0070896853787894  -3.888908131068714  0.9844452542602382 
C  0.6998852720200731  -2.080570739001207  2.5872731805919336 
H  0.5909024119382744  -2.7026766119275147  3.33666971052718 
H  -0.1684354785735951  -1.6897590231735022  2.3585480685900584 
H  1.321941329257755  -1.367338444341119  2.8424879832735392 
Br  -1.654629867976521  1.654629867976521  0.0 
C  -1.35204078  -1.31992066  -0.4819701 
C  -1.63807002  -1.59921746  -1.81393823 
H  -1.15796809  -1.15933936  -2.50351594 
C  -2.63068217  -2.5263265  -2.14228996 
H  -2.83682226  -2.69439953  -3.05388981 
C  -3.31015444  -3.19615732  -1.16198741 
H  -3.99601236  -3.81199015  -1.38686634 
C  -2.99747104  -2.9701089  0.1242356 
H  -3.43865917  -3.46858118  0.80170842 
C  -2.03898543  -2.01594063  0.49125628 
H  -1.86191301  -1.84921651  1.41015686 
