69

Pd  0.0  0.0  0.0 
P  1.361660904006574  -1.624185821419458  1.9890539674218538e-16 
N  4.194891200384457  -1.7211624160447863  -0.24372443000544952 
N  1.361660904006574  1.624185821419458  -1.9890539674218538e-16 
C  3.071231638399243  -1.0109226271074303  0.06177805929605541 
C  3.4007291837182203  0.31415204514842704  0.28778100302643345 
C  4.827445614479005  0.4157628047201163  0.07297488175313743 
C  5.282255611711235  -0.844709705876491  -0.2716805352185562 
C  6.614735542325707  -1.1339316987082353  -0.5905605806464201 
C  7.490820839776171  -0.06910212244182297  -0.518945393015183 
C  7.066214825226825  1.2046515070486514  -0.17030986159535258 
C  5.758279919366833  1.4754653506368132  0.09622076357566982 
C  2.5493882326250237  1.4231599531387884  0.6441580575719955 
C  0.6732423106967913  2.7690741774665995  0.21520358401538656 
C  1.0581182769444393  3.7705919339622134  1.0443849116084243 
C  2.243231974914674  3.552909834206527  1.808618773936778 
C  2.6653269356571236  4.542741877312885  2.760800957426753 
C  3.738180942401498  4.25084793651634  3.587207919848326 
C  4.3782183778986825  3.021993479915007  3.5113740510742137 
C  4.015183502366905  2.085637032922456  2.569943935068166 
C  2.9388259901550517  2.3725822142273216  1.67181915596948 
C  1.3643033256192636  -3.1198321526237236  -1.034172499906698 
C  1.1571545091957607  -4.388730161595909  -0.5142767500868106 
C  1.065590708405876  -5.474913784636163  -1.3382240890739943 
C  1.2022051789815777  -5.32938246249137  -2.705905839593506 
C  1.4300601101508414  -4.066735579385515  -3.2397321399243677 
C  1.4923723819697723  -2.9543811700722644  -2.423260628564572 
C  0.9751562657540886  -2.208197873791039  1.6892787861374816 
C  1.90963394686603  -2.167460290610947  2.7275081311380407 
C  1.5317873093417966  -2.5103385885592067  4.007881046076417 
C  0.2279890839572556  -2.9172039430556955  4.26993033684939 
C  -0.695095743132722  -2.950796192341752  3.2446534850751028 
C  -0.3399040933521007  -2.619185207381121  1.9628317125265005 
C  4.380214822826055  -3.191576812910293  -0.3547395931849469 
H  6.891493669666892  -1.987463826447442  -0.8348967749926339 
H  8.390037186685474  -0.20945935065649  -0.7101418886394781 
H  7.690415902038656  1.891076034523992  -0.1171767853881638 
H  5.485453623281084  2.342794560399809  0.29005397552869167 
H  -0.12884093920885764  2.87732877043327  -0.24190978630145796 
H  0.5731067543257965  4.560661621849606  1.1117398016214937 
H  2.2276020540650774  5.362062938025636  2.8219284267655182 
H  4.03210806772511  4.8855930970787  4.2008446088929725 
H  5.066419132994496  2.8269342411124403  4.106749205110194 
H  4.464521278691912  1.2739604515766976  2.518925996437046 
H  1.0789604320649229  -4.5024737662768946  0.40571058607377464 
H  0.9106576547839474  -6.31669931925259  -0.9773276737330802 
H  1.1410055083132817  -6.071008580091197  -3.2642620359448125 
H  1.542776341271723  -3.968836073120257  -4.157799728893125 
H  1.6161603417267925  -2.10801047352314  -2.7881192930391157 
H  2.7859665824552122  -1.9088707225571258  2.5546928624402825 
H  2.151560358879978  -2.4714460251794863  4.7002779160721495 
H  -0.020688754446755775  -3.1640438980120953  5.130730185434338 
H  -1.5718089618783508  -3.2013878146995296  3.4263286646699465 
H  -0.9665009622311882  -2.666202647745956  1.2765562691275225 
H  5.291179605409453  -3.4162083083885286  -0.15275467757978192 
H  4.171095883985398  -3.473464081572614  -1.2479266884702878 
H  3.795712662609163  -3.6353395249687552  0.26644818847878815 
Br  -1.654629867976521  1.654629867976521  0.0 
C  -1.3788582233137676  -1.3788582233137676  0.0 
C  -2.618821778986925  -1.1522995256591737  0.5874691967409313 
H  -2.8106553971707884  -0.30966242518610043  0.9782000501948407 
C  -3.5854032518711887  -2.161278806785389  0.6049610958635797 
H  -4.421117162155692  -2.007227978208148  1.0287619599160838 
C  -3.3399450833386255  -3.3715361338635086  0.016423527177974573 
H  -3.9908757182151104  -4.061238805801311  0.045080339651694 
C  -2.164680252095028  -3.57422256025893  -0.6007549227026177 
H  -2.0132444416912625  -4.3986257169530365  -1.0474288760065327 
C  -1.1561711193052586  -2.601214672555715  -0.5998012209931929 
H  -0.3196784027493984  -2.7832859823079534  -1.0129111498427692 
