74

Cr  0.0  0.0  0.0 
O  0.36667  1.96844  0.0 
N  2.01806  0.0293  0.0 
N  0.01527  -1.99774  0.0 
C  1.71054  2.25533  -0.22951 
C  3.03054  -0.99526  -0.1977 
H  4.10524  -0.70705  -0.11827 
C  3.06375  4.00187  1.06712 
H  3.63354  3.21331  1.5345 
N  2.54431  1.26596  0.41007 
H  3.50078  1.40216  0.00415 
C  1.19097  -2.876  -0.042 
C  2.03376  3.67783  0.1647 
C  1.59155  6.0462  -0.14528 
H  1.01891  6.83427  -0.61472 
C  1.29317  4.71156  -0.423 
H  0.48554  4.48089  -1.1073 
O  4.35547  5.70219  2.21731 
C  2.62186  -2.40891  -0.10058 
C  3.36908  5.35003  1.35056 
C  2.12881  -5.27594  0.05743 
H  1.9828  -6.35026  0.11643 
C  0.96669  -4.37607  0.03821 
C  2.63547  6.36221  0.72912 
H  2.86365  7.40342  0.92542 
C  3.61625  -3.32327  -0.08215 
H  4.6515  -2.99911  -0.13065 
C  -0.25517  -4.88892  0.13728 
H  -0.4296  -5.9621  0.20012 
C  -1.40666  -4.00985  0.21117 
H  -2.40162  -4.43506  0.32955 
C  -1.26116  -2.68742  0.17758 
H  -2.20677  -2.19532  0.30912 
C  5.14793  4.8154  2.91862 
H  4.50839  4.15158  3.53947 
H  5.82491  5.3782  3.5904 
H  5.75699  4.20714  2.21548 
C  3.35944  -4.77699  -0.00691 
H  4.20506  -5.45724  0.00307 
S  0.54257  0.0  -1.91044 
S  -1.90257  0.0  -0.56956 
N  -1.8016  0.34491  -3.28092 
C  -1.19582  -0.43652  -2.18888 
C  -1.09351  0.13124  -4.55669 
H  -0.16149  0.73814  -4.56074 
H  -1.69879  0.47684  -5.42101 
H  -0.8191  -0.9375  -4.70365 
C  -3.26762  0.12765  -3.38872 
H  -3.68569  0.93884  -4.02207 
H  -3.74359  0.27658  -2.40199 
C  -3.74583  -1.22505  -3.90506 
C  -4.67915  -1.2486  -4.95829 
H  -5.01464  -0.32765  -5.41669 
C  -5.22398  -2.45522  -5.40426 
H  -5.95938  -2.45286  -6.19839 
C  -4.83637  -3.65953  -4.81696 
H  -5.26731  -4.59102  -5.16182 
C  -3.9026  -3.65804  -3.77995 
H  -3.60733  -4.59548  -3.32378 
C  -3.3647  -2.44995  -3.3167 
H  -2.66647  -2.48871  -2.49734 
O  0.0  0.0  1.85 
C  -0.50938  0.55969  4.09619 
H  0.04259  1.52462  4.15735 
H  -1.27288  0.51448  4.90235 
C  -1.06653  0.39912  2.69335 
H  -1.82993  -0.4093  2.67412 
H  -1.52586  1.35226  2.35402 
C  0.4768  -0.55755  4.10851 
H  -0.06876  -1.52494  4.16497 
H  1.23828  -0.50687  4.91796 
C  1.05071  -0.40056  2.72002 
H  1.81484  0.40614  2.72799 
H  1.52074  -1.35312  2.39771 
