54

Pd  0.0  0.0  0.0 
N  0.2159734719346711  -2.0435368955330486  -8.659739592076221e-15 
N  1.8617042936009416  -0.024195836519572522  -2.55351295663786e-15 
N  0.3223222344643871  2.067732732052621  1.1213252548714081e-14 
C  -0.6941949353380086  -3.0333698315408713  -0.05201816218254807 
C  -0.3342552342638152  -4.371798472871788  -0.16224394707743672 
C  1.0102197284451622  -4.69609790815822  -0.22874808921608125 
C  1.9463389854059623  -3.6868564593363304  -0.2074322564372021 
C  1.5404554632006042  -2.3668212921209073  -0.09570466934824459 
C  2.4745775407599355  -1.2200781129904992  -0.06319797259015003 
C  3.860687831161097  -1.2828788600836756  -0.11477644686527133 
C  4.570177826002109  -0.08202830192636568  -0.06599833503445296 
C  3.929687093440256  1.127343368435115  0.01794405252667952 
C  2.5248742567627676  1.1441210315452375  0.04168207954478731 
C  1.655129482357838  2.32537820034995  0.07784184368665004 
C  2.113598893297837  3.6357048228955913  0.1795299525316133 
C  1.20599346151227  4.676915342345144  0.15513068244158823 
C  -0.13376393273165932  4.4090862946845695  -0.013027771993347037 
C  -0.5434000732420354  3.0901329628512433  -0.07730623521030378 
H  -1.616577276367204  -2.808016810583257  -0.014499461475058761 
H  -0.9971132250316304  -5.049873183477915  -0.19086196433358726 
H  1.282380119683913  -5.6036933418853625  -0.28912540381692686 
H  2.871454885652091  -3.896105267883324  -0.26846099748155755 
H  4.31146410250221  -2.1169236173594346  -0.1809877454224279 
H  5.519028724844056  -0.1030520310287093  -0.09256870540183526 
H  4.425821806688039  1.9365555336687956  0.059159558690740854 
H  3.0439685752599726  3.8120093690057963  0.2664530904555974 
H  1.5053436150285708  5.573314188794596  0.252073468010498 
H  -0.7631888526180013  5.1182438409988995  -0.08161534179657026 
H  -1.4691044213867863  2.901617842629959  -0.17833350516182478 
F  1.6024921306705255  0.19752535144677283  -5.150283549088426 
C  0.5928044597906298  0.1567979263720518  -4.223394745552678 
N  -1.9271359400055639  -2.498001805406602e-16  -0.0728640599944359 
C  -0.6983216362557203  0.24726259111746862  -4.676722616459205 
H  -0.8868515004101442  0.3418522329773565  -5.582298974352203 
C  -1.7087008830713424  0.19233642213969815  -3.736079999114155 
H  -2.596558665514697  0.25294716077966495  -4.007216047097977 
C  -1.4079688238057944  0.04690081998187212  -2.384132354360509 
C  -2.4280161301837495  -0.022589788012358364  -1.3378916037912658 
C  -3.8004971060956114  -0.11814110222265967  -1.5367123449445843 
H  -4.138755216459151  -0.15507915679344839  -2.4019454585606947 
C  -4.661397841157024  -0.15948461414088172  -0.46333545941323484 
H  -5.579652371205462  -0.21360316059596085  -0.5947410566119262 
C  -4.133300042900302  -0.11929096166043043  0.8167617813371377 
H  -4.695252322911218  -0.13913057356315153  1.5578085847106258 
C  -2.7795466278993035  -0.04784734589659469  0.9768470434312757 
H  -2.4296053448525154  -0.03252941220736874  1.8384616146445816 
C  -0.07286405999443613  -1.1102230246251565e-15  -1.9271359400055639 
C  0.942690459247753  0.04192098768435334  -2.8992395143423533 
H  1.836841839020958  -0.007936708036225261  -2.650403302694778 
O  0.0  0.0  1.83 
O  -1.0580079455984537  -0.18902414143583152  3.7032448961641373 
O  1.0614052759457384  0.18940702275806376  3.72567078099666 
N  -0.0033973303472847327  -0.0003828813222318955  3.125584602234993 
