67

Pd  0.0  0.0  0.0 
C  2.8027951289090147  1.2830775321402221  0.10976522833490071 
C  1.0795968722301659  2.4042251371981704  -0.9461170169234869 
H  0.1644486314006035  2.565531507484808  -0.9946590833352724 
C  3.1850095527094715  2.800656394612986  -1.7246136148746598 
C  4.045327815466928  3.4775966282503132  -2.601470038041584 
H  3.699454466521231  4.107518882805281  -3.193803921679428 
C  5.372080972700211  3.2196446941634136  -2.593973407307959 
H  5.9334549089666755  3.684720445038291  -3.170643520656057 
C  5.913566017874925  2.2581363382982174  -1.7237108966518073 
H  6.819275481834504  2.060960141298535  -1.7645375329427746 
C  5.126123850883214  1.6107307068489796  -0.8245421015909202 
H  5.49897521552165  0.9965414883450334  -0.23434790155096635 
C  3.722945549653135  1.8780170036670842  -0.7892571120014258 
C  3.3045288856741535  0.30406617876300923  1.1256632090794714 
C  2.9313448167877088  -1.0345502062718652  1.0514066642802329 
C  3.615752987037358  -1.9871496925298437  1.8599151276104307 
H  3.399132211807043  -2.888458211350163  1.7895037390391224 
C  4.583926287000686  -1.5968270386653405  2.7333783192323517 
H  5.072172763299003  -2.2410129912204733  3.1924930618761636 
C  4.856112879054406  -0.24562342098909684  2.9534993602184896 
C  5.73508708561212  0.211946342799336  3.949413676549402 
H  6.184325100860915  -0.4175855540031441  4.4659303234869405 
C  5.9565322601412865  1.5227133305819711  4.19241019590097 
H  6.5465333454083625  1.781236267073611  4.863962390962123 
C  5.287221590339554  2.493971219178092  3.418259111725953 
H  5.4093275771941  3.3970384041574144  3.5995783533628813 
C  4.452808447650709  2.1015896031445056  2.3937408275030547 
H  4.043223331745737  2.74814955690385  1.8671851143787415 
C  4.214426910259631  0.7431933302595022  2.1308709386926363 
C  2.130516791277546  -1.346799101358986  -1.6760686355299375 
C  1.3787741760220933  -0.6528213562529244  -2.6291474883571535 
H  0.5174128214547502  -0.3707524724329776  -2.422173065689787 
C  1.9155520117766187  -0.3830127526860967  -3.8775052545780477 
H  1.4157168228291463  0.07759476915212615  -4.513312729145564 
C  3.190226530387136  -0.8005457857065166  -4.172096985524203 
H  3.5562384961615527  -0.591066048215477  -5.000280733547962 
C  3.941255347742108  -1.5211532392396063  -3.272083461506372 
H  4.793709583556638  -1.8251541384400851  -3.489439595827946 
C  3.3779194192542032  -1.783017199777353  -2.0122339435693473 
H  3.870137692439572  -2.266823848717438  -1.3900929643823308 
C  1.2377111124386064  -3.2438729833018067  0.40157621532485893 
C  1.5226798882076182  -4.2758368427055  -0.47753156516702594 
H  1.8464860036676387  -4.091670384780849  -1.3299267583527916 
C  1.318326436073511  -5.580816810633287  -0.07466243020124838 
H  1.4889862871590642  -6.278236572680812  -0.6667060947506107 
C  0.8621896381096097  -5.863815634227369  1.2047527203216932 
H  0.7526604380031672  -6.748172373622641  1.4735509007660845 
C  0.5689994341634139  -4.8410771534254655  2.07806476890286 
H  0.2543305800517526  -5.023789981820396  2.933439461416018 
C  0.7497904932835223  -3.550011504205642  1.6632681291541296 
H  0.5404588154534934  -2.8555370497814057  2.244671071018918 
N  1.5007227975212478  1.4966399316468877  -1.980289684965436e-16 
N  1.8254890465835623  3.050577018198384  -1.7716744832248108 
P  1.5007227975212478  -1.4966399316468877  2.220446049250313e-16 
Br  -1.654629867976521  1.654629867976521  0.0 
C  -1.3788582233137676  -1.3788582233137676  0.0 
C  -2.618821778986925  -1.1522995256591737  0.5874691967409313 
H  -2.8106553971707884  -0.30966242518610043  0.9782000501948407 
C  -3.5854032518711887  -2.161278806785389  0.6049610958635797 
H  -4.421117162155692  -2.007227978208148  1.0287619599160838 
C  -3.3399450833386255  -3.3715361338635086  0.016423527177974573 
H  -3.9908757182151104  -4.061238805801311  0.045080339651694 
C  -2.164680252095028  -3.57422256025893  -0.6007549227026177 
H  -2.0132444416912625  -4.3986257169530365  -1.0474288760065327 
C  -1.1561711193052586  -2.601214672555715  -0.5998012209931929 
H  -0.3196784027493984  -2.7832859823079534  -1.0129111498427692 
