80

Pd  0.0  0.0  0.0 
C  0.28198  -2.08441  0.0 
C  1.6453  -2.34654  -0.24431 
C  2.15833  -3.6311  -0.21524 
H  3.22856  -3.76645  -0.30972 
C  1.28394  -4.70774  -0.03301 
C  -0.09926  -4.46694  0.07977 
C  -0.61017  -3.14002  0.10927 
H  -1.66522  -2.92736  0.19788 
O  1.727  -5.98881  0.01385 
C  2.87156  -6.46011  -0.58996 
H  2.72714  -6.41218  -1.6892 
H  3.02678  -7.51561  -0.29175 
H  3.77309  -5.88414  -0.29742 
O  -0.90191  -5.55379  0.11218 
C  -2.2652  -5.49985  -0.01212 
H  -2.69318  -4.98976  0.87371 
H  -2.65417  -6.53253  -0.08954 
H  -2.52839  -4.9514  -0.94399 
C  2.50546  -1.18531  -0.44081 
H  3.58617  -1.2889  -0.43609 
N  1.90355  0.01254  0.0 
C  2.47215  1.31161  -0.29805 
H  3.48535  1.40184  0.15896 
H  2.53065  1.4699  -1.39043 
C  1.55015  2.34753  0.35165 
H  1.6303  2.28398  1.46116 
H  1.86195  3.36663  0.02776 
O  0.21448  2.07187  0.0 
H  -0.28187  2.90959  0.18828 
N  -1.92072  0.0  -0.07928 
H  -2.36619  -0.20984  0.82309 
N  -2.45184  0.23338  -2.37784 
N  -0.07928  0.0  -1.92072 
H  0.87462  0.00294  -2.33523 
C  -2.81935  0.09246  -1.17165 
C  -4.26896  0.12152  -0.93628 
C  -5.02495  1.07535  -1.638 
H  -4.53782  1.77768  -2.307 
C  -6.39989  1.15467  -1.45751 
H  -6.96204  1.90985  -1.99006 
C  -7.03711  0.25998  -0.59614 
H  -8.1088  0.31197  -0.47293 
C  -6.29141  -0.69663  0.10483 
H  -6.78786  -1.39395  0.76415 
C  -4.90234  -0.7549  -0.04713 
H  -4.33394  -1.50221  0.49364 
C  -1.12338  0.3553  -2.8372 
C  -0.90015  0.04355  -4.29207 
C  -1.83859  0.5543  -5.19202 
H  -2.71151  1.07878  -4.82369 
C  -1.6508  0.41858  -6.56209 
H  -2.38308  0.83549  -7.23705 
C  -0.51375  -0.22614  -7.05259 
H  -0.36054  -0.30514  -8.118 
C  0.42537  -0.76184  -6.16858 
H  1.31051  -1.25655  -6.55066 
C  0.23481  -0.64138  -4.79107 
H  0.99687  -1.06165  -4.14693 
N  0.8698  -0.77235  2.8637 
N  -0.88413  0.7753  2.80751 
C  0.0  0.0  1.95 
C  -0.51775  0.49643  4.13722 
C  -1.047  1.02533  5.30956 
H  -1.83936  1.76219  5.28534 
C  -0.51906  0.56952  6.53306 
H  -0.8987  0.95842  7.46339 
C  0.50922  -0.39378  6.55894 
H  0.91718  -0.74893  7.49346 
C  1.01807  -0.89069  5.36563 
H  1.81656  -1.63508  5.40933 
C  0.48916  -0.40809  4.15495 
C  1.82193  -1.82317  2.59128 
H  1.28107  -2.6939  2.18191 
H  2.28599  -2.2496  3.48595 
H  2.6634  -1.43459  2.00555 
C  -1.86225  1.76991  2.41557 
H  -1.88196  1.9385  1.33087 
H  -1.62301  2.75134  2.8871 
H  -2.87136  1.43201  2.72606 
