46

Pd  0.0  0.0  0.0 
C  2.554762653370124  0.3030658105118835  0.4363947302058919 
C  2.0714779495082514  2.5354505986560025  0.1154791763978996 
H  1.48114226566289  3.213378850285834  -0.19236603798907762 
C  3.2866023284711803  2.906674905609529  0.6735929171146602 
H  3.524615949893137  3.823406044734971  0.7424957078809207 
C  4.136742850362993  1.9313060796820287  1.1231404634835918 
H  4.974544760141914  2.1634059746867935  1.5084697365859447 
C  3.761010423682917  0.5965534326720108  1.006121982717302 
H  4.3310404587149565  -0.09721462128044456  1.3176225067560337 
C  1.8512392117869236  -2.326753105055148  1.4537143694878671 
C  1.6199477278582146  -1.7565530347554876  2.7040113859172967 
H  1.4248061017401126  -0.8293293041564548  2.773459202081614 
C  1.676124135678565  -2.5418835659840924  3.845826562697071 
H  1.5164301814241554  -2.152835679983802  4.697741325671226 
C  1.960818171000631  -3.883826054563436  3.7435187741493747 
H  2.016385343544881  -4.417129377559549  4.529952360039981 
C  2.1657770644506797  -4.455814222620711  2.513536466309843 
H  2.3423446864871504  -5.385932460939117  2.44671889679516 
C  2.1134289390002605  -3.68019992039294  1.369848017499795 
H  2.259136550966059  -4.081754288803508  0.5221676526064982 
C  2.726532766107498  -1.9900118306288723  -1.3112254631057456 
C  3.9744736541833774  -2.568703557948829  -1.052484908495852 
H  4.290156334246633  -2.6527987766784196  -0.16047840084306575 
C  4.745427454935171  -3.019915093635468  -2.117090857741708 
H  5.5946493493901  -3.4125322668761124  -1.951407728682151 
C  4.289566763634576  -2.902068671646305  -3.4156082280342175 
H  4.820275898959773  -3.2204313031918583  -4.135894079983147 
C  3.0722144949287946  -2.328398911374926  -3.664175965335512 
H  2.76709931257872  -2.2380540700603677  -4.559223888715806 
C  2.2796776388152633  -1.880300447273275  -2.6225771998929557 
H  1.428881074853675  -1.4966103584686494  -2.80188925332011 
N  1.703126712109231  1.2615305792964358  0.0 
P  1.703126712109231  -1.2615305792964358  0.0 
Br  -1.654629867976521  1.654629867976521  0.0 
C  -1.35204078  -1.31992066  -0.4819701 
C  -1.63807002  -1.59921746  -1.81393823 
H  -1.15796809  -1.15933936  -2.50351594 
C  -2.63068217  -2.5263265  -2.14228996 
H  -2.83682226  -2.69439953  -3.05388981 
C  -3.31015444  -3.19615732  -1.16198741 
H  -3.99601236  -3.81199015  -1.38686634 
C  -2.99747104  -2.9701089  0.1242356 
H  -3.43865917  -3.46858118  0.80170842 
C  -2.03898543  -2.01594063  0.49125628 
H  -1.86191301  -1.84921651  1.41015686 
