66

Pd  0.0  0.0  0.0 
N  0.11948  -1.9603  0.0 
N  2.3771  -2.41514  -0.14006 
N  2.0922  -0.02259  0.0 
C  1.04675  -2.82499  -0.08927 
C  0.81402  -4.29966  -0.1426 
H  1.36188  -4.77237  0.70235 
H  1.23621  -4.69271  -1.0937 
H  -0.26053  -4.55435  -0.07628 
C  2.8029  -1.08349  -0.0656 
C  4.2191  -0.73599  -0.04174 
C  5.38853  -1.49606  -0.08537 
H  5.35731  -2.57644  -0.14664 
C  6.61682  -0.8071  -0.04739 
H  7.54825  -1.36088  -0.07803 
H  -0.86033  -2.27759  0.04294 
N  0.18831  1.98288  0.0 
N  2.46049  2.35722  0.1445 
C  1.15275  2.8184  0.09341 
C  0.96262  4.29725  0.1389 
H  1.52865  4.74958  -0.70481 
H  1.39752  4.67281  1.08982 
H  -0.10246  4.58776  0.07062 
C  2.83863  1.01142  0.06835 
C  4.24091  0.61523  0.04242 
C  5.43608  1.33455  0.08369 
H  5.4422  2.41534  0.14848 
C  6.63944  0.60453  0.03621 
H  7.58623  1.12597  0.06693 
H  -0.7822  2.33028  -0.04893 
O  -2.66221  -0.01676  0.92645 
N  -2.36589  0.00708  -1.4006 
N  -1.85674  0.0  -0.14326 
N  -0.14326  0.0  -1.85674 
H  0.67989  0.00079  -2.47446 
N  -1.83453  0.04146  -3.69091 
C  -1.48072  0.01063  -2.31352 
C  -3.23247  0.07383  -4.09032 
H  -3.43479  1.02215  -4.63048 
H  -3.45628  -0.7961  -4.74236 
H  -3.92504  0.0288  -3.22543 
C  -0.79477  0.06906  -4.69573 
H  -0.16514  -0.8422  -4.60389 
H  -1.22597  0.1022  -5.71755 
H  -0.16195  0.96956  -4.54532 
N  0.0  0.0  1.91 
H  -0.28543  0.93102  1.70136 
N  0.05472  1.34775  3.82101 
N  -0.7777  2.84817  5.46409 
H  -0.38063  3.62128  4.88193 
H  -0.63959  3.12644  6.46285 
N  -0.57678  0.52407  5.97576 
H  -0.42394  0.67807  6.99302 
N  -0.23439  -0.96397  4.14166 
H  -0.1763  -1.89742  3.70591 
C  -0.04519  0.15457  3.31158 
C  0.00525  1.64104  5.23327 
C  -0.01555  -0.78271  5.55082 
C  1.50213  -0.869  5.80705 
H  2.04881  -0.10552  5.20385 
H  1.88202  -1.86124  5.48375 
H  1.73425  -0.70946  6.87436 
C  -0.76545  -1.87639  6.30237 
H  -0.60004  -1.76089  7.38903 
H  -0.4135  -2.878  5.96936 
H  -1.85092  -1.78536  6.07925 
