55

Pd  0.0  0.0  0.0 
P  1.6255219454070744  -1.3600655884919666  1.6655999695771482e-16 
N  1.6255219454070744  1.360065588491967  -1.6655999695771487e-16 
C  2.2514297623370276  -1.7279263550853958  -1.6598090887530876 
C  1.6778794344199857  -2.7915698126071855  -2.3588631328851197 
C  2.0360873733724185  -3.035717111685741  -3.6757739228872985 
C  2.9761276694341294  -2.2331773524008534  -4.301987014851345 
C  3.5256179844346347  -1.167600227104326  -3.614625135078063 
C  3.171819477913432  -0.9006923455495076  -2.312634559249148 
C  1.4299848539562672  -2.9530598884229633  0.8222150243423754 
C  2.3563762669416937  -3.964583719803338  0.5778752844381793 
C  2.320308317418036  -5.129124579745371  1.33100874441897 
C  1.3681537031297237  -5.280639721179462  2.318497631650487 
C  0.4243672613875549  -4.300065154567023  2.5392830516774954 
C  0.4541358763714285  -3.1280476956388537  1.80016917984887 
C  2.9085218913861244  -0.45255220057619516  1.0066916406583708 
C  4.298175559541974  -1.0857119851383703  0.9509007830361319 
C  2.409665999105611  -0.45962537784161434  2.4812280487882106 
C  2.8258738461405954  0.9636181049571068  0.49786248824785184 
C  3.911686212479914  1.8236252324787434  0.5757333153693924 
C  3.780426355657806  3.118043442818162  0.11229633289093845 
C  2.5971408196447126  3.5244697429004264  -0.43194775101232424 
C  1.5429595419724031  2.6331726905692197  -0.47761741611833863 
H  1.0283331128166917  -3.352278400084622  -1.9355002199833335 
H  1.6382634944017127  -3.755984687962108  -4.157264805340622 
H  3.244220166339776  -2.4214430670594473  -5.1983670145094365 
H  4.158864365876843  -0.614005781828465  -4.075080377799938 
H  3.5536611082698784  -0.12493263665938503  -1.8429792565116407 
H  3.0114746978344393  -3.858651273442608  -0.1348104335679528 
H  2.9543431796457185  -5.851299600796425  1.154519304367043 
H  1.3904287237230133  -6.087756303856299  2.859145812472023 
H  -0.2590478131545544  -4.424874628048531  3.210761421558384 
H  -0.21943715288717214  -2.4432032088132085  1.966435872604625 
H  4.609934182685318  -1.0968438600480124  0.04595268935518663 
H  4.906722323913192  -0.5941043702869706  1.4805266590972035 
H  4.263576402126538  -1.989261137766062  1.2669801830164615 
H  1.5409981774720014  -0.06418358845236952  2.5336718936412397 
H  2.362477022189151  -1.3490525718207558  2.8163628083521424 
H  3.0066105275871253  0.046254839128571014  3.030018761167877 
H  4.734382706398154  1.506585801697978  0.9730628992476736 
H  4.531076544668073  3.732899415262273  0.16094720018695027 
H  2.5036584527527705  4.412493574412237  -0.787944284348493 
H  0.6924342139365448  2.9210200071343584  -0.8354783230581223 
Br  -1.654629867976521  1.654629867976521  0.0 
C  -1.352040782177733  -1.3199206589279684  -0.4819701001757076 
C  -1.6380700204479186  -1.599217458033982  -1.8139382277462257 
H  -1.1579680913617836  -1.159339363685303  -2.503515938957912 
C  -2.63068216563725  -2.52632649780156  -2.142289956238523 
H  -2.8368222554424674  -2.694399528648736  -3.0538898079700485 
C  -3.3101544432602585  -3.1961573187854975  -1.1619874135498987 
H  -3.9960123560788676  -3.811990145619169  -1.3868663427944008 
C  -2.9974710358883443  -2.9701089012107795  0.12423560353005347 
H  -3.438659168087169  -3.468581175155742  0.8017084178296768 
C  -2.0389854250767776  -2.015940632791841  0.4912562833419403 
H  -1.8619130127668426  -1.8492165108145995  1.4101568590026907 
