68

Pd  0.0  0.0  0.0 
O  0.12697  -1.98011  0.0 
C  1.64106  2.29465  0.09971 
N  2.19276  3.59714  -0.0345 
H  1.58336  4.41394  -0.15073 
N  2.08442  -0.02749  0.0 
C  1.19094  -2.79157  -0.2935 
C  0.8433  -4.14827  -0.3625 
H  -0.19876  -4.41182  -0.28525 
C  0.21382  -6.95901  -0.57962 
H  -0.38023  -6.54263  -1.42202 
H  -0.26809  -6.69733  0.38732 
H  0.24337  -8.06206  -0.67646 
N  2.57024  1.23633  0.16026 
O  1.50234  -6.45611  -0.62127 
C  3.12377  -0.97541  -0.36991 
H  4.04548  -0.86475  0.24238 
C  2.56378  -2.40185  -0.41338 
C  3.52713  -3.41577  -0.56133 
H  4.57976  -3.16626  -0.60821 
C  1.83079  -5.13303  -0.53013 
C  3.16494  -4.76342  -0.60953 
H  3.92801  -5.52322  -0.69722 
C  3.64441  3.77515  -0.06967 
H  4.09561  3.17385  -0.89462 
H  4.11383  3.43704  0.88341 
H  3.92092  4.83492  -0.23646 
S  0.18861  2.0076  0.0 
N  0.48907  0.0  -1.8811 
N  -1.84907  0.0  -0.5989 
C  -0.51569  -0.84567  -2.46127 
C  -0.13842  -1.69077  -3.65012 
C  1.11008  -1.65056  -4.12218 
C  2.08919  -0.69987  -3.56679 
C  1.76641  0.11479  -2.55027 
C  -1.92639  -0.51298  -1.98933 
C  -2.82002  -1.76309  -2.06128 
H  -2.45404  0.83537  -0.4492 
H  -2.2587  -0.68805  0.07442 
H  -0.85596  -2.36164  -4.10481 
H  1.39993  -2.29407  -4.94609 
H  3.0909  -0.6656  -3.98482 
H  2.54498  0.77936  -2.20436 
H  -2.32832  0.27799  -2.65935 
H  -2.42022  -2.55845  -1.39206 
H  -2.86734  -2.16673  -3.09246 
H  -3.85191  -1.51142  -1.74384 
N  0.83324  -0.8019  2.85308 
N  -0.88776  0.78785  2.7976 
C  0.0  0.0  1.95 
C  -0.52709  0.49515  4.13757 
C  -1.03496  1.03734  5.31978 
H  -1.81168  1.78717  5.3012 
C  -0.49995  0.57844  6.53798 
H  -0.86801  0.97519  7.47157 
C  0.5108  -0.40505  6.55378 
H  0.91581  -0.76277  7.4884 
C  1.00742  -0.92382  5.35817 
H  1.78345  -1.67265  5.39164 
C  0.47642  -0.43782  4.16257 
C  1.77648  -1.84384  2.55159 
H  1.24379  -2.68007  2.08709 
H  2.23194  -2.29809  3.4412 
H  2.61524  -1.42102  1.9967 
C  -1.91645  1.72507  2.41721 
H  -1.99026  1.84696  1.33556 
H  -1.69117  2.72669  2.84343 
H  -2.90558  1.36945  2.76555 
