79

Ni  0.0  0.0  0.0 
P  1.3145413972180555  -1.533649541127308  1.8781790015553647e-16 
N  1.3145413972180555  1.533649541127308  -1.8781790015553647e-16 
C  1.120852560684281  2.4069167798835363  1.1527456026015834 
C  1.3188037252373264  2.108072723461682  2.4691725152683963 
H  1.6476508221528547  1.2978693903803495  2.76150353639707 
C  1.033336464197346  3.0986081354068156  3.3876037214874715 
H  1.16698282567098  2.9568125561898353  4.224973050863314 
C  0.5620548647347854  4.336023610134537  2.9968888677739454 
H  0.32996363730028366  4.921402134318162  3.6107272386604112 
C  0.3673879316102795  4.6283804869673135  1.66544861687399 
H  0.11690844435256786  5.535921921744467  1.4587905886589163 
C  0.6616379248890432  3.6563588842325485  0.7100364360470934 
C  0.5974564770775533  3.639538379085695  -0.7293542414145482 
C  0.16654869266212802  4.5625518297072  -1.6756557691011493 
H  -0.14580111476740343  5.3333221154213035  -1.3641623751761167 
C  0.18647460087625234  4.194684214016264  -2.9957769247182173 
H  -0.10751539140196154  4.801503813307458  -3.636495114218367 
C  0.6274777406039156  2.9541120500514153  -3.407337572431189 
H  0.6301512736096188  2.732998457339264  -4.310192467383426 
C  1.0650790580991858  2.0416893045189375  -2.463504562645349 
H  1.3140021939518427  1.2460662744340545  -2.711970911344371 
C  1.0259572434525168  2.381539939245359  -1.1518613757630152 
C  2.641948318430808  0.9019489380756613  -0.019765971281470743 
C  3.75568610091398  1.725190634527351  -0.0635692941330419 
H  3.5917692490591766  2.6584947086431896  -0.1506679790644992 
C  5.020980097529778  1.1960310526039122  -0.006225515162057029 
H  5.710623387871189  1.72929170183858  -0.18170876810911735 
C  5.196643471050244  -0.16930982146621118  0.11509264834548867 
H  6.051560706614115  -0.5303359947554567  0.17827431131751964 
C  4.086388726850249  -0.9940346175042167  0.1426257880408925 
H  4.241545966270609  -1.931158221338491  0.24112229656846815 
C  2.7962391261313115  -0.48025923801248593  0.05386584666568649 
C  1.4819029570631492  -2.614777996837753  -1.470134164129054 
H  0.6698320368649077  -3.163218329810917  -1.4972692288367253 
C  1.46843546370135  -1.7749304107632762  -2.754312418417543 
H  0.6696554008432883  -1.2001276762663058  -2.736461435383208 
H  2.3019689109046126  -1.2560909245172147  -2.719927539395207 
C  1.4993742704797544  -2.658504150174394  -3.9870841033852953 
H  0.6903194555024867  -3.0497706546190284  -4.0480896675723015 
H  1.5417636437644304  -2.077732392276373  -4.782396511348699 
C  2.645018694394383  -3.6353981339842423  -3.9795602513497164 
H  3.5156332800992915  -3.095269318511112  -3.9611554733433922 
H  2.5178662320090535  -4.13350439262693  -4.704766943548773 
C  2.625782222162158  -4.473416772228865  -2.735537763574382 
H  3.3068155248214772  -5.131014879198392  -2.659831882831506 
H  1.856320370149501  -4.9591430186909085  -2.645277851126177 
C  2.658075009494604  -3.6004895818252844  -1.487024525302386 
H  3.493670883350453  -3.106260219331655  -1.460573006551253 
H  2.618384684752524  -4.164352799470402  -0.6981979791537541 
C  1.5350044810555716  -2.6224612645491883  1.4651597556594171 
H  2.494791695365886  -2.9970096568616658  1.424169939087317 
C  0.5734694991745165  -3.8102470272997815  1.4736932441601798 
H  0.7250573249786011  -4.359340697279304  0.6895137987164618 
H  -0.3416280775883016  -3.490120145744352  1.4485054552845724 
C  0.7944885889270051  -4.641530270838516  2.7375661574614916 
H  0.16156565725505967  -5.376615855757306  2.753776197819299 
H  1.6900114442062781  -5.0167664897839455  2.723892252971052 
C  0.6223691477747808  -3.807305628447551  3.9745432081803234 
H  0.7632949882122526  -4.3601488610525525  4.759950572329569 
H  -0.28416736629980077  -3.462975052368329  4.008916643075294 
C  1.6097381063325131  -2.6421333892366987  3.988252790559924 
H  1.4644121226711555  -2.1003578937807705  4.778832521514548 
H  2.5180265741449603  -2.9834396009643425  4.01936274194246 
C  1.4255942288151404  -1.791350159424686  2.742688051879683 
H  2.098673735602441  -1.0940387846148227  2.729635308728724 
H  0.554573269142999  -1.3656746465430851  2.7730731723305966 
Br  -1.5839191898578664  1.5839191898578664  0.0 
C  -1.2937473829822488  -1.2398794889499034  -0.4598005675376139 
C  -1.601562203225019  -1.4938654694550033  -1.7919791134336869 
H  -1.1309417375171225  -1.0428217585005106  -2.480879663633267 
C  -2.60218398542082  -2.411889969420291  -2.121542410022959 
H  -2.8231586547736818  -2.5626138747145775  -3.03270050271447 
C  -3.2683208079706407  -3.09759503004543  -1.143064365570095 
H  -3.9596020908062854  -3.707191723557817  -1.3683280760515548 
C  -2.9347449854640226  -2.896087320001541  0.14198826503765638 
H  -3.3668350933519986  -3.405606940434718  0.8171022443470677 
C  -1.9675509241539992  -1.9516175659140573  0.5112421903797603 
H  -1.7755298364628027  -1.8022912010877177  1.4301324877763764 
