80

Pd  0.0  0.0  0.0 
N  0.36761836702864903  -1.9888136573015138  1.4370491794235274e-15 
N  -0.536191021539635  -3.0593950997571575  0.08700927654806805 
H  -0.8195945486950784  -3.4824380314314416  -0.6307618978217866 
C  -0.9527901399038472  -3.412095278746783  1.3361871054895071 
O  -0.3908160794583577  -3.056538147760209  2.3554598962531013 
C  -2.1330652684763995  -4.339788240718742  1.3727921485947718 
N  -2.596956581383898  -4.688744119041443  0.24251288009826935 
O  -3.645527812187013  -5.6014367179388795  0.3621943483792136 
H  -3.9437362747510862  -5.786707162945755  -0.40152362644010825 
C  -2.633395204298549  -4.8014107303978975  2.7044183883267094 
H  -3.611502095142713  -4.75295671477744  2.720179684384249 
H  -2.2656304318030926  -4.225877192476863  3.4085043410622133 
H  -2.3475694756439562  -5.7266787875023795  2.8573561709089317 
C  1.6282465269578665  -2.3038427099529155  0.093634600330403 
N  2.1153518753879137  -3.5304432767584344  0.23221399650177327 
H  1.5694005117495047  -4.219535154640344  0.26970442699471603 
H  2.9855678164107804  -3.654357937497214  0.2884270985659592 
C  2.5358949664237973  -1.120525142581461  0.07712232958522 
N  1.8494799170157241  0.023632825631608623  -2.6674294455268314e-15 
C  2.4440827104290914  1.217185252141349  0.07889716875611448 
C  3.8307476299259573  1.29915536388377  0.2369071425479084 
H  4.264089563791398  2.14173410800837  0.31554077595735225 
C  4.5576877020961755  0.12116814176460403  0.27687245246948655 
H  5.503871352870177  0.15584127184948754  0.35392109332769883 
C  3.916251169863445  -1.118131177386607  0.2033421004467151 
H  4.409132424595853  -1.9297840854016628  0.23747471892389396 
C  1.4852857860360107  2.3478720235915533  0.04731263706920357 
N  0.1829017159556271  1.965180831669905  1.2026246904876751e-15 
C  -0.7705454794065372  2.897969000036115  0.042293836572675804 
H  -1.6802856324411495  2.6288265600596628  -0.0020179108548688427 
C  -0.47625082845119415  4.250525311702695  0.14885368919065736 
H  -1.1720869555366995  4.895037080248956  0.196601405869187 
C  0.8476275149379486  4.637569848129717  0.18415905319117798 
H  1.0724224163037903  5.558331753972855  0.2488345900504458 
C  1.8468636227656485  3.680050652518569  0.12554983165112832 
H  2.7624479463488694  3.9338377715512745  0.13786423873118012 
B  -2.4768426503286487  0.0840129969778555  -2.4611248218441526 
C  -3.6604431322519515  1.3781710773298042  -0.40276006985027424 
C  -0.4627779414533564  1.3602571617881414  -3.6546120820404324 
C  -2.519638760831353  -1.5179954983310715  -2.466916530047193 
C  -3.2362082078974423  -2.3028661157580936  -1.5359870206689752 
C  -3.4680074879057425  -3.6598582793369583  -1.756248165161608 
C  -2.9853007604673154  -4.281224702370201  -2.8736183471570778 
C  -2.2588687434115986  -3.5715900140512256  -3.819087962602671 
C  -2.031430580240886  -2.2267641717482713  -3.5968465942489543 
C  -3.5266954849183523  1.3360899832250954  0.9633465908287908 
C  0.8872894231477263  1.4285177380693757  -3.483428599294932 
C  -2.5008453066525695  0.45876372946715516  1.2090053912393417 
C  1.1490211665450196  0.5861572136557561  -2.426147155493014 
C  -3.5235072356250607  0.8043240559415535  -3.4252535861806153 
C  -4.516474786825509  0.08948757280531414  -4.165108230445569 
C  -5.4678086711784175  0.7211084832614574  -4.892680162254767 
C  -5.487579125885956  2.084870044595416  -5.021716060161632 
C  -4.5361352774838455  2.8160940476937957  -4.38127133137499 
C  -3.598037010109303  2.2017608469610273  -3.5926629880090797 
H  -4.296589629517296  1.9077324453358322  -0.8689272947091484 
H  -3.5701164889665313  -1.8951665404354794  -0.7429701191370677 
H  -3.9657888729918747  -4.16005002311035  -1.1224593343017828 
H  -3.147455219767949  -5.209354014239045  -3.0097211089908793 
H  -1.919782637119973  -4.000414721251377  -4.596477358603591 
H  -1.5191281887511232  -1.7471837650897677  -4.238178180265997 
H  -4.037521590918858  1.8216072786115491  1.6082873441611913 
H  -0.9564258158791455  1.8694350366140036  -4.296455900942473 
H  1.5134668457607288  1.9404085176779795  -3.9884015145700493 
H  2.0093245941648306  0.43733199163381237  -2.044741642009335 
H  -2.1832366999852293  0.20922737974480313  2.06604427200154 
H  -4.509512031118038  -0.858945437595029  -4.1446132355462915 
H  -6.135232730921349  0.20153798876709944  -5.3233061551153575 
H  -6.15735319642734  2.5085825918808  -5.546373912197953 
H  -4.522165756648087  3.760578311495287  -4.485521309403734 
H  -2.968688643288789  2.7470533543617983  -3.1316213797425823 
N  -2.0130917585539825  -2.6020852139652106e-15  0.013091758553982924 
N  0.01309175855398248  0.0  -2.0130917585539825 
N  -2.761851572921767  0.5480909554929636  -0.9892082438877838 
N  -0.9974258894386234  0.5287532016692681  -2.767079341223632 
C  0.0  0.0  1.95 
H  -0.7913512922306805  -0.4770034426118167  2.278302525152195 
H  -0.016780818258522498  0.9242672617139978  2.2755215093696313 
H  0.8081321104892031  -0.44726381910218116  2.275267855956283 
