79

Pd  0.0  0.0  0.0 
N  2.02513  0.02094  0.0 
O  2.71844  1.17977  -0.14941 
C  0.47041  -2.05318  0.0 
C  1.87566  -2.3469  0.0922 
C  2.34894  -3.66469  0.01765 
H  3.40855  -3.88345  0.06032 
C  1.43127  -4.70815  -0.11011 
H  1.79596  -5.72827  -0.17027 
C  0.05029  -4.44063  -0.13002 
H  -0.63866  -5.27282  -0.18962 
C  -0.4366  -3.11748  -0.08304 
H  -1.50251  -2.9299  -0.11121 
C  2.74323  -1.16802  0.42017 
N  4.1755  -1.22453  0.06557 
H  4.44174  -1.93932  -0.64468 
H  4.58698  -0.2916  -0.16264 
C  2.27291  2.03446  0.86682 
H  3.08231  2.73136  1.16845 
H  1.98402  1.51224  1.80699 
C  1.09953  2.79128  0.33217 
N  -0.09554  2.03224  0.0 
C  1.12699  4.27464  0.07103 
H  2.01031  4.85725  0.30644 
C  0.05864  4.87451  -0.45909 
H  0.06883  5.94054  -0.65822 
C  -1.14578  4.09876  -0.78222 
H  -1.9995  4.60048  -1.23013 
C  -1.20821  2.78078  -0.55279 
H  -2.13389  2.34167  -0.83877 
C  -3.10124  -0.04799  0.74261 
H  -3.14558  -0.09544  1.8176 
C  -4.20726  0.11064  -0.0935 
H  -5.24474  0.19601  0.20166 
C  -3.74379  0.16644  -1.39647 
H  -4.31651  0.2816  -2.30773 
C  -2.3835  0.07435  -1.30009 
C  -1.37797  0.08556  -2.38808 
H  -1.6645  0.13087  -3.43145 
C  1.00233  0.03766  -3.00632 
C  1.32341  1.27187  -3.64784 
C  2.25713  1.31234  -4.69078 
H  2.51139  2.24777  -5.16997 
C  2.86531  0.15283  -5.15305 
H  3.58134  0.19376  -5.95789 
C  2.5132  -1.06777  -4.59659 
H  2.95934  -1.96804  -5.00582 
C  1.57251  -1.15455  -3.56234 
C  0.65001  2.55001  -3.27425 
H  -0.43782  2.49593  -3.49911 
H  1.06708  3.42332  -3.81869 
H  0.82368  2.73172  -2.21534 
C  1.18531  -2.51045  -3.12403 
H  1.66346  -3.32168  -3.70999 
H  0.0841  -2.64409  -3.12833 
H  1.59007  -2.63761  -2.16231 
N  -1.9854  0.0  -0.0146 
N  -0.0146  0.0  -1.9854 
N  0.0  0.0  1.91 
N  0.87941  -0.98689  4.93285 
C  -0.98054  0.73024  2.80472 
C  -0.89866  0.6137  4.35111 
C  -0.15136  -0.10174  5.24304 
C  1.51173  -1.07895  3.66504 
C  0.44399  -1.24701  2.62391 
C  -1.13384  2.22996  2.5244 
C  -0.49524  -0.03393  6.70105 
H  -1.66654  1.2134  4.82387 
H  1.21032  -1.65997  5.65779 
H  2.18177  -1.97997  3.73182 
H  2.16514  -0.21195  3.43389 
H  1.03973  -1.87942  2.0986 
H  -0.40942  -1.91071  2.89526 
H  -0.1598  2.74467  2.44667 
H  -1.82623  2.34562  1.68637 
H  -1.67161  2.79065  3.3147 
H  -1.29633  0.69645  6.92518 
H  -0.84503  -1.04468  6.99722 
H  0.41347  0.21844  7.28662 
