65

Pd  0.0  0.0  0.0 
S  0.00803  -2.14731  0.0 
N  1.95419  -0.01129  0.0 
N  2.41694  -1.28206  -0.01091 
N  2.03218  -3.66145  -0.21974 
H  3.06522  -3.75092  -0.29014 
H  1.45913  -4.50591  -0.2892 
C  0.43778  2.1586  0.0 
C  -0.34513  3.25141  0.01459 
H  -1.42147  3.1485  -0.06183 
C  0.26031  4.6023  0.14058 
H  -0.37183  5.48317  0.15269 
C  1.59274  4.73273  0.24686 
H  2.04206  5.7161  0.34924 
C  2.45791  3.5333  0.22464 
H  3.52643  3.67551  0.32732 
C  1.90763  2.30564  0.08709 
C  2.67198  1.05141  0.06812 
C  4.14345  1.04684  0.17481 
C  4.90906  1.76005  -0.7614 
H  4.42702  2.26852  -1.58885 
C  6.29522  1.81683  -0.63699 
H  6.87893  2.36583  -1.36619 
C  6.92521  1.18019  0.43612 
H  7.99954  1.24034  0.54362 
C  6.16584  0.47292  1.37681 
H  6.65022  -0.00312  2.21576 
C  4.77638  0.39596  1.24021 
H  4.19171  -0.12809  1.98534 
C  1.47101  -2.37366  -0.06287 
N  -1.91701  0.0  -0.08299 
N  -2.81102  -0.0225  0.96199 
N  -3.74883  0.04665  -1.68247 
N  -0.08299  0.0  -1.91701 
C  -4.08621  0.02266  0.72308 
C  -4.58666  0.07647  -0.70201 
C  -2.36522  0.0133  -1.42263 
C  -1.42604  0.00481  -2.37401 
C  -1.69072  0.00181  -3.82645 
H  -2.70647  0.0115  -4.20781 
C  -0.64593  -0.02501  -4.67069 
H  -0.8244  -0.0359  -5.74078 
C  0.75319  -0.04028  -4.16056 
H  1.57696  -0.06582  -4.86706 
C  1.00481  -0.02365  -2.83859 
H  2.03179  -0.03665  -2.49667 
C  -5.03933  -0.03983  1.872 
H  -4.48856  -0.11005  2.83286 
H  -5.67582  -0.9442  1.7678 
H  -5.67412  0.86886  1.87687 
C  -6.04152  0.21104  -1.01714 
H  -6.3498  1.2577  -0.81279 
H  -6.64324  -0.48805  -0.40813 
H  -6.22497  -0.00431  -2.09349 
C  0.0  0.0  1.95 
C  -1.08354  0.34182  4.16752 
C  1.29472  -0.37615  4.04777 
N  0.16438  0.2685  3.38104 
H  -0.69054  0.82611  1.70212 
H  -0.90931  0.99871  5.04433 
H  -1.44736  -0.65383  4.50845 
H  -1.89929  0.82102  3.58001 
H  0.98796  -1.23736  4.6828 
H  1.76549  0.3938  4.6938 
H  2.05713  -0.71139  3.31286 
