62

Ni  0.0  0.0  0.0 
P  1.5205189369093697  -1.3297075477337108  1.6284220921341653e-16 
N  1.5205189369093697  1.3297075477337112  -1.6284220921341658e-16 
N  3.8243140419115265  1.7296760753294556  -0.14874478512229905 
C  2.926331747162776  -0.4190897039351079  0.7931587578051835 
H  2.72252445203835  -0.35257693941727375  1.7500303785622606 
C  4.298461790753706  -1.072062270331248  0.674048174693432 
H  4.20663617441314  -2.032154011688846  0.7826434064516052 
H  4.658418369003869  -0.9029682538437758  -0.21024200130231846 
C  5.267317402655353  -0.5367658878950226  1.724239493567023 
H  6.1662677534830825  -0.8330737946009135  1.5118721204366854 
H  5.030852602881444  -0.8972589119565783  2.593507667418365 
C  5.239409960743407  0.9843621213783809  1.784357245436691 
H  4.472341289159031  1.2628078033864563  2.310066019611955 
H  6.037241145826674  1.2941400802250802  2.241780830663167 
C  5.169965767527456  1.6334393462696704  0.4471710691111753 
H  5.533583151845128  2.530462031470573  0.5230401672798975 
H  5.738418812166218  1.1396214792363275  -0.16268724249863212 
C  2.7549362997756406  0.9725619326626416  0.2028053103097209 
C  1.2710478239790461  2.622333353257236  -0.6760468849924354 
H  1.3072496647574257  3.3429248634980144  -0.02876833437208777 
H  0.3888952106330825  2.6180768609107448  -1.078702046439313 
C  2.318358490644189  2.834145116287405  -1.7410357086575101 
H  2.1624739957308483  3.673809647712321  -2.1989048700044993 
H  2.2826489053396113  2.1163783361960498  -2.3924961947306533 
C  3.66635316811101  2.854357714949275  -1.0602736721304287 
H  4.3650094714554095  2.8233175286539156  -1.7324989592417457 
H  3.7635149969702812  3.684753377425519  -0.5666596197034696 
C  1.9655906158482943  -1.5692299303379353  -1.7473170516074512 
C  1.2589370895238752  -0.8919408779181514  -2.7138349010057987 
H  0.5263411906568183  -0.36884839702979516  -2.4792591234812336 
C  1.6524298926632612  -0.9974140928660788  -4.051613651325192 
H  1.1850414509331382  -0.5319794331510089  -4.708423693934933 
C  2.712427460544368  -1.7751344997048144  -4.400624460431091 
H  2.963305138449554  -1.841604386373232  -5.2933722383029735 
C  3.4197765631571193  -2.4711795485408827  -3.430911494124183 
H  4.144219101268279  -3.0005681281573153  -3.674344011974096 
C  3.048021231200328  -2.378233528033861  -2.1076799684894385 
H  3.5156256657890377  -2.85078515870704  -1.4564647512984497 
C  1.5193395695624847  -2.9688846124310184  0.7768858729974377 
C  1.289071402838051  -4.127112936865876  0.04745490308308003 
H  1.1837854247204618  -4.0800837535641925  -0.8752238160439048 
C  1.2156103358333308  -5.348184357997013  0.6841723177430864 
H  1.067574346954169  -6.119518792962104  0.18646421510293673 
C  1.358965445952797  -5.4371289347211  2.0524294261383034 
H  1.3074346574341944  -6.264596953440918  2.472763466908926 
C  1.5773301171734215  -4.303515782288377  2.793252064152472 
H  1.674889730231028  -4.361329923549003  3.7165290848620516 
C  1.6526503129327144  -3.057929854147365  2.1538808623237555 
H  1.793313047774058  -2.287896487227612  2.655114918286815 
Br  -1.5839191898578664  1.5839191898578664  0.0 
C  -1.308147545195113  -1.308147545195113  0.0 
C  -2.5481111008682706  -1.081588847540519  0.5874691967409313 
H  -2.7399447190521347  -0.23895174706744582  0.9782000501948406 
C  -3.514692573752534  -2.090568128666735  0.6049610958635798 
H  -4.3504064840370384  -1.9365173000894942  1.0287619599160838 
C  -3.2692344052199704  -3.300825455744854  0.016423527177974795 
H  -3.920165040096455  -3.990528127682657  0.045080339651694334 
C  -2.0939695739763726  -3.5035118821402764  -0.6007549227026172 
H  -1.9425337635726068  -4.327915038834382  -1.0474288760065322 
C  -1.0854604411866036  -2.53050399443706  -0.5998012209931928 
H  -0.24896772463074335  -2.712575304189299  -1.0129111498427692 
