46

Ni  0.0  0.0  0.0 
P  1.4172001393592928  -1.4393205914597345  1.4615242297921949e-15 
N  1.4172001393592932  1.4393205914597345  4.577866939722741e-17 
N  2.7808426852866726  -0.4909846556723633  0.2959947631817682 
C  1.4088177415669805  2.7872355323780753  -0.03061433416483296 
H  0.5981370187003603  3.2414985602813284  -0.2238378499506638 
C  2.563858921164303  3.529841398883462  0.2159733590930384 
H  2.517651718434143  4.478154052852869  0.19199577086255654 
C  3.779087187084291  2.9195659152893856  0.4964109739615965 
H  4.55602963031597  3.433039629474538  0.6838728494085934 
C  3.8185888330220883  1.5239688975584023  0.4923324854437369 
C  4.782319643454862  0.47351488198247227  0.7368850077840804 
H  5.701302167103778  0.5945581269924741  0.9450039018454315 
C  4.141415480132316  -0.7170061042157129  0.6161144200670031 
H  4.544310356547689  -1.5704737731206402  0.7295054986059654 
C  2.6072626760113526  0.8740967977982241  0.22936432141068064 
N  1.7054319418448634  -2.4757460958618456  -1.274959172625069 
C  2.469725320251772  -3.649603567244562  -1.2821964789154159 
H  2.8389961305055413  -4.081636561623769  -0.5207248442091227 
C  2.5891067374037964  -4.059184072448147  -2.5716413117779866 
H  3.0478479701461803  -4.835626330435021  -2.871700158330228 
C  1.9049958015291475  -3.1210287559661234  -3.393928736936154 
H  1.8316052135183036  -3.160653378401462  -4.341155658475202 
C  1.375909304475939  -2.1607807311683316  -2.5964365241165424 
H  0.8723160616976596  -1.4088571802779835  -2.8834906992203377 
N  1.3993918754432153  -2.471319274597837  1.3175270030392339 
C  0.6532039232810098  -3.65460386741584  1.3895136160136439 
H  0.3917897278231872  -4.191783040414304  0.6504606175691218 
C  0.366789198873259  -3.9037406560699415  2.692022178819126 
H  -0.11147035949043405  -4.653613656153533  3.026060842119359 
C  0.910611607415616  -2.8375849996406153  3.4725063389601005 
H  0.8530719293043055  -2.7491939276620148  4.417386174620328 
C  1.5232849324978308  -1.974476313242895  2.624916861561075 
H  1.962404111403163  -1.1701497915012062  2.8736328504729647 
Br  -1.5839191898578664  1.5839191898578664  0.0 
C  -1.308147545195113  -1.308147545195113  0.0 
C  -2.5481111008682706  -1.081588847540519  0.5874691967409313 
H  -2.7399447190521347  -0.23895174706744582  0.9782000501948406 
C  -3.514692573752534  -2.090568128666735  0.6049610958635798 
H  -4.3504064840370384  -1.9365173000894942  1.0287619599160838 
C  -3.2692344052199704  -3.300825455744854  0.016423527177974795 
H  -3.920165040096455  -3.990528127682657  0.045080339651694334 
C  -2.0939695739763726  -3.5035118821402764  -0.6007549227026172 
H  -1.9425337635726068  -4.327915038834382  -1.0474288760065322 
C  -1.0854604411866036  -2.53050399443706  -0.5998012209931928 
H  -0.24896772463074335  -2.712575304189299  -1.0129111498427692 
