66

Ni  0.0  0.0  0.0 
C  2.8912936696232814  -0.7294581554360193  0.2769898236910853 
H  2.8981759624293417  -0.3204487553093161  1.1784639079851043 
H  3.617740814021645  -1.4009563643084877  0.24017526303204847 
P  1.286444063105737  -1.5572930592858882  -2.881842189964494e-15 
N  3.138252338242484  0.30955105696101637  -0.7318714762644409 
C  2.5514092819791316  1.5289436489184878  -0.49862338089228275 
N  1.2864440631057386  1.5572930592858873  -1.3009364206640417e-15 
C  0.8013041258949111  2.7437506396254943  0.43521252438063623 
H  -0.04601011222321438  2.7532851809319387  0.8637365545170911 
C  1.4719693963595424  3.933951404310042  0.28884078961967624 
H  1.1039715651186879  4.743463732437982  0.6233836371159527 
C  2.695136548405288  3.9235594039710584  -0.35643801406543746 
H  3.1484379507803366  4.740139136615039  -0.530767096091077 
C  3.2515455199409677  2.7301998471948945  -0.7439503553471309 
H  4.099138109000663  2.712233556371748  -1.1730472038150541 
C  4.457273284531381  0.2688295693631209  -1.3642637625068812 
H  4.432504084982306  0.7738796884207778  -2.2043741445362786 
H  4.7024741539072545  -0.6623344985387518  -1.5494637147362513 
H  5.120431666536647  0.6674864928613131  -0.763016527400416 
C  1.0328020235539679  -2.513550782339555  1.5496782223649777 
H  1.9373082517193991  -2.801478383587333  1.8640773312213372 
C  0.44679289734421024  -1.602865961943367  2.6484515665533293 
H  1.0257075268113849  -0.8070988758380265  2.760097240272935 
H  -0.4514907669222674  -1.291306472798473  2.374159234841758 
C  0.34419306902668323  -2.345369711064442  3.970191509874424 
H  -0.0817438291143624  -1.7588567297384767  4.644767540828749 
H  1.2534288499188946  -2.5713321963537314  4.291717029837039 
C  -0.4726663317094093  -3.6252521764200507  3.8242547965211826 
H  -0.48110042526239893  -4.111402432780383  4.686010651915712 
H  -1.4078254320361079  -3.396711961797118  3.5913428016040068 
C  0.11734843385691773  -4.5185426118361764  2.741402514624966 
H  -0.44141001573174  -5.330064227799403  2.642847799680854 
H  1.0274705023598427  -4.803859230535901  3.0085056922880633 
C  0.18638848423725585  -3.7844144570980744  1.4062543378804166 
H  -0.7274816215473978  -3.543720386855519  1.1102639591462038 
H  0.5878870852365187  -4.375565438289852  0.7212981050949588 
C  1.5204005478867022  -2.771124867453589  -1.3520032228916148 
H  0.7059134386117936  -3.3504195060707294  -1.36763813557004 
C  2.7224215757688035  -3.692977367495105  -1.0993872560635647 
H  3.557090419685621  -3.161165419794155  -1.1069014610832288 
H  2.6350635193171854  -4.117243337256106  -0.20895103887798205 
C  2.791820614359149  -4.771264402158971  -2.1774018637190236 
H  3.5783759580887002  -5.350205969787501  -2.016026609970742 
H  1.9808915293072573  -5.336923540461395  -2.1320065085396416 
C  2.8976594295489075  -4.14504857259174  -3.5617756535600127 
H  2.890352674750398  -4.8595938653770725  -4.246943870783099 
H  3.756434711154733  -3.6587726237685594  -3.637255235560548 
C  1.7460257999716018  -3.1791086995342015  -3.8254742027865922 
H  0.8984492565311359  -3.688824979502722  -3.871987608860357 
H  1.8845009314218606  -2.7386181727771115  -4.701390833412523 
C  1.6306318235388364  -2.112259518454663  -2.740322284835458 
H  0.8298276106796231  -1.5542560618679646  -2.906849745346422 
H  2.4272621808919297  -1.524159915403732  -2.7672692816036877 
Br  -1.5839191898578664  1.5839191898578664  0.0 
C  -1.308147545195113  -1.308147545195113  0.0 
C  -2.5481111008682706  -1.081588847540519  0.5874691967409313 
H  -2.7399447190521347  -0.23895174706744582  0.9782000501948406 
C  -3.514692573752534  -2.090568128666735  0.6049610958635798 
H  -4.3504064840370384  -1.9365173000894942  1.0287619599160838 
C  -3.2692344052199704  -3.300825455744854  0.016423527177974795 
H  -3.920165040096455  -3.990528127682657  0.045080339651694334 
C  -2.0939695739763726  -3.5035118821402764  -0.6007549227026172 
H  -1.9425337635726068  -4.327915038834382  -1.0474288760065322 
C  -1.0854604411866036  -2.53050399443706  -0.5998012209931928 
H  -0.24896772463074335  -2.712575304189299  -1.0129111498427692 
