40

Co  0.0  0.0  0.0 
O  1.2178606837401413  -1.3268064497129937  -2.901954502966179e-15 
C  1.2178606837401404  1.326806449712994  -3.8453153209793947e-16 
C  2.422334861324555  0.6456734704487702  0.2873799925029758 
H  3.2316875915311116  1.1023912759215133  0.4813329359490248 
C  2.3360662213412295  -0.7342365913360831  0.2647182816154942 
N  1.0858690187308557  2.6423921671155455  -0.09780669984461446 
H  0.3936058247967531  2.907156315704051  -0.4829642207972339 
C  3.5194279214665847  -1.6236145486525075  0.5252585198055292 
H  3.2968842255306057  -2.264570458373899  1.2329862394777105 
H  4.282775102599573  -1.0776112072030404  0.807197612842227 
H  3.750172154933683  -2.1092674900739086  -0.29325032511335736 
C  2.11289980655168  3.7220733785762476  0.019119313030648472 
C  1.3380863484244898  5.036622192668372  -0.06935158881839797 
H  0.8884363196396037  5.092559134349697  -0.9383513875347806 
H  1.958837926472746  5.788211119007788  0.02623933206101617 
H  0.6700898526614397  5.0711120800290335  0.647074310572572 
C  2.792463343831888  3.6733148199982466  1.3883395625758672 
H  2.1113757496892087  3.698611022776926  2.0919592405482432 
H  3.3898248472386747  4.44443153805559  1.4834408316529162 
H  3.312019747523353  2.8452457860877924  1.4664712364463321 
C  3.100996169137602  3.6084006231923516  -1.1302802445331843 
H  3.5463411785756507  2.736178333158768  -1.0931481918400996 
H  3.7702967050846374  4.320384330540431  -1.0575345707654311 
H  2.6231510099456212  3.695631013898573  -1.9808012805893513 
C  -2.3548454241639103  2.3426488530790195  0.0015299239524605435 
N  -1.2869343417595165  1.2869343417595165  0.0 
H  -2.693375588169933  2.4619669995222804  -0.8954705654495243 
H  -3.0572383823462785  2.091859246622548  0.5932930485126433 
H  -1.9589253610772144  3.1679096565334866  0.3006475929844209 
O  -1.2303657992645927  -1.2303657992645929  -2.039441957216427e-16 
S  -2.159533510151115  -2.194488925903933  -0.7267508525795362 
C  -3.7671812061284795  -1.8718408426545972  -0.0477942486686534 
H  -3.733590673273821  -1.9611661702061265  0.9275640506041584 
H  -4.410850037586107  -2.515096971671424  -0.4124824413651804 
H  -4.044852675602387  -0.9624161521508069  -0.28363938290356977 
C  -1.8864264071999477  -3.7828300048175834  0.0315191701386498 
H  -0.9693504369973378  -4.0777446795777115  -0.1490805239033645 
H  -2.5175640744376393  -4.4349826535070065  -0.33880035108745976 
H  -2.0218804493651352  -3.710663070252786  0.9994645797649531 
