29

Fe  0.0  0.0  0.0 
F  4.723182714401348  -3.573414071543275  0.052260109134861295 
F  4.654593904715234  3.61516825655025  -0.08831740474020588 
N  1.3208647678698977  -1.323713059918954  1.6210809618192955e-16 
N  1.3208647678698977  1.323713059918954  -1.6210809618192955e-16 
C  1.2662579636186477  -2.639983362567986  -0.08688139785757712 
H  0.43198046135723933  -3.044367591452737  -0.15449932927934867 
C  2.3865965023412516  -3.441662043644815  -0.08203671419114535 
H  2.3206769291060465  -4.367773447331545  -0.13880208942887934 
C  3.577641547811164  -2.8274565827953326  0.006331897455169328 
C  3.6784825663554472  -1.4665054034587026  0.08413823679319718 
H  4.510509157377543  -1.0576396935191639  0.14612947059128997 
C  2.5364846689248424  -0.7161215286778524  0.07065555408670283 
C  2.535771668462732  0.7226258121670018  0.03221806142391281 
C  3.6701936654138376  1.5065709558853362  0.023325116245248998 
H  4.512322908588484  1.1145490776455222  0.07001381692799591 
C  3.5483813136359426  2.8566443170331204  -0.05646467303549857 
C  2.3348117443329857  3.451803603327564  -0.09059082721904615 
H  2.2569286809639664  4.377607780310628  -0.1393971210854105 
C  1.2258403271598681  2.6544162450245308  -0.05166748317483821 
H  0.3833975914306492  3.0481388846061837  -0.06383547799463324 
O  -1.26572113832392  1.26572113832392  0.0 
O  -3.294923904967489  1.8856867094818544  0.4026613992238449 
O  -1.8992490286430812  3.313076576284632  -0.4037350775452413 
N  -2.184132972243117  2.1795426200872017  0.0010736783213962653 
O  -1.26572113832392  -1.26572113832392  0.0 
O  -1.831182629353698  -3.3494279850956445  0.050758830552114165 
O  -3.367702601002498  -1.8446230039252147  -0.050699611033737574 
N  -2.1794206754974907  -2.1842549168328276  -5.921951837664641e-05 
