48

Ni  0.0  0.0  0.0 
P  1.448370483508968  1.4079499076671718  8.545081409145859e-16 
N  1.4483704835089677  -1.4079499076671718  1.9984014443252818e-15 
N  2.816126734637985  0.4567420431636662  -0.20294572181798679 
H  3.609639993965545  0.8286028118947681  -0.29107390091001906 
C  1.3420960169162497  2.465167775926635  -1.4711245653524418 
C  0.10989293184064985  2.9176792832824816  -1.9397018085479734 
H  -0.6947450974123432  2.583033893958463  -1.5607944778138585 
C  0.05778993590403503  3.8626050421856135  -2.966731300809908 
H  -0.7795535241683762  4.180479589825981  -3.281442155145153 
C  1.2397586899554067  4.3341853351948405  -3.5241327106498996 
H  1.2046636688571022  4.983717118974878  -4.215485769046006 
C  2.4706998978715164  3.8692386162560686  -3.0837012163149193 
H  3.2716930486797744  4.188533555338709  -3.4812694296249136 
C  2.5253028349292514  2.932044300737905  -2.0551633880241402 
H  3.3651749259184487  2.6101585308450668  -1.7501445985735116 
C  1.9872343172084566  2.6156912773991765  1.2421954284928716 
C  1.4054485528062983  3.8869008532892106  1.3037369470350895 
H  0.7253225053218475  4.129615287331974  0.6849173909119041 
C  1.8227462595494286  4.7922342412589485  2.26867873832313 
H  1.431216718334292  5.656647128658136  2.3051636455323665 
C  2.8130888761432327  4.443297164503138  3.18269192653395 
H  3.0906931255901724  5.064083294918947  3.846193215886405 
C  3.3913482188744264  3.184400959923823  3.1207564065160103 
H  4.073558766882651  2.945801260338907  3.7386252692565574 
C  2.9781524912745345  2.2709349814850315  2.158746293820653 
H  3.3728570149221184  1.40742585138081  2.1258450592116453 
C  2.6818797249713056  -0.9066194724320743  -0.2301664526685662 
C  3.787747551780624  -1.7341274637713642  -0.4779051938813385 
H  4.6497433148587515  -1.3606060926372432  -0.619841728084018 
C  3.5991329258423757  -3.103736080170976  -0.5112419718617194 
H  4.335191987580531  -3.6885301879132193  -0.6474130744609807 
C  2.3071054851291635  -3.6160623256374542  -0.34207947409601347 
H  2.149760370488203  -4.551703798268175  -0.39328650087984507 
C  1.268544318725442  -2.7485409434145778  -0.10104610498651276 
H  0.39214339907833207  -3.101035646739861  -0.0009931081831502375 
Br  -1.5839191898578664  1.5839191898578664  0.0 
C  -1.308147545195113  -1.308147545195113  0.0 
C  -2.5481111008682706  -1.081588847540519  0.5874691967409313 
H  -2.7399447190521347  -0.23895174706744582  0.9782000501948406 
C  -3.514692573752534  -2.090568128666735  0.6049610958635798 
H  -4.3504064840370384  -1.9365173000894942  1.0287619599160838 
C  -3.2692344052199704  -3.300825455744854  0.016423527177974795 
H  -3.920165040096455  -3.990528127682657  0.045080339651694334 
C  -2.0939695739763726  -3.5035118821402764  -0.6007549227026172 
H  -1.9425337635726068  -4.327915038834382  -1.0474288760065322 
C  -1.0854604411866036  -2.53050399443706  -0.5998012209931928 
H  -0.24896772463074335  -2.712575304189299  -1.0129111498427692 
