62

Pd  0.0  0.0  0.0 
P  1.6504477687888215  -1.3297075477337108  -2.1781795441821156e-16 
N  1.6504477687888217  1.3297075477337112  1.7022469817413038e-16 
N  3.943300902101465  1.7296760753294547  -0.2691122553719524 
C  3.095844683486401  -0.4190897039351086  0.7184972035703144 
H  2.942395490450762  -0.3525769394172744  1.6847239147064315 
C  4.459860504274577  -1.072062270331248  0.5277381194520717 
H  4.373844167047332  -2.032154011688846  0.6409903066580854 
H  4.773043602587403  -0.9029682538437758  -0.3741788393192608 
C  5.482351100143566  -0.5367658878950232  1.5257842027118889 
H  6.3689550212105415  -0.8330737946009145  1.2666604454601864 
H  5.291704348269581  -0.8972589119565791  2.4062366861559745 
C  5.45762822444212  0.9843621213783795  1.5872801279507434 
H  4.719124265214777  1.2628078033864554  2.1524137089531528 
H  6.278305710355423  1.2941400802250793  2.0023215720594494 
C  5.318296284866627  1.63343934626967  0.25556094706402077 
H  5.685386025998404  2.530462031470572  0.3122958057556736 
H  5.854052766453246  1.139621479236327  -0.383212108595477 
C  2.8937874154071386  0.9725619326626407  0.1379229595918539 
C  1.365936987157364  2.6223333532572353  -0.6620640769820749 
H  1.435965156473399  3.342924863498015  -0.01756725707435225 
H  0.46391999039867393  2.6180768609107448  -1.0179991129526245 
C  2.3560751424781197  2.834145116287405  -1.7804053757009055 
H  2.1764412614541064  3.6738096477123214  -2.2294886791705775 
H  2.2863196884259978  2.11637833619605  -2.4291041625251593 
C  3.737850772243993  2.854357714949276  -1.1711248903409173 
H  4.400368038194502  2.823317528653916  -1.8789937617798391 
H  3.8607132076423465  3.6847533774255212  -0.6832723760411213 
C  2.0034619837045637  -1.5692299303379353  -1.7682156662294102 
C  1.24719326560439  -0.8919408779181509  -2.6964255484734303 
H  0.5278781115838487  -0.3688483970297947  -2.4238301419925126 
C  1.5701328703932866  -0.997414092866078  -4.052964741636457 
H  1.069010186628725  -0.5319794331510083  -4.684413427875109 
C  2.6104119340137  -1.775134499704813  -4.456973229888454 
H  2.8142229841417783  -1.8416043863732312  -5.3616274511310085 
C  3.3675424946377883  -2.4711795485408823  -3.525609013182731 
H  4.078251935825861  -3.0005681281573144  -3.8066223082024435 
C  3.0655492276681526  -2.378233528033861  -2.1847347595791513 
H  3.5665947977423014  -2.850785158707039  -1.5588845354382603 
C  1.6899290827788516  -2.9688846124310184  0.775882901226693 
C  1.4218010232503573  -4.127112936865876  0.059502895803372 
H  1.2683700628360817  -4.080083753564194  -0.8564010818625982 
C  1.3817638468376248  -5.348184357997013  0.6991923665637488 
H  1.2078827066547624  -6.119518792962101  0.2099139606169956 
C  1.596531537914983  -5.4371289347211  2.058071699374686 
H  1.5670699545163083  -6.2645969534409165  2.480526600044037 
C  1.8533686091097694  -4.303515782288377  2.786450741832429 
H  1.999115105864293  -4.361329923549005  3.703356567833158 
C  1.8951234779165829  -3.0579298541473667  2.1440138215452746 
H  2.0618260029888584  -2.287896487227613  2.637199234919149 
Br  -1.654629867976521  1.654629867976521  0.0 
C  -1.3788582233137676  -1.3788582233137676  0.0 
C  -2.618821778986925  -1.1522995256591737  0.5874691967409313 
H  -2.8106553971707884  -0.30966242518610043  0.9782000501948407 
C  -3.5854032518711887  -2.161278806785389  0.6049610958635797 
H  -4.421117162155692  -2.007227978208148  1.0287619599160838 
C  -3.3399450833386255  -3.3715361338635086  0.016423527177974573 
H  -3.9908757182151104  -4.061238805801311  0.045080339651694 
C  -2.164680252095028  -3.57422256025893  -0.6007549227026177 
H  -2.0132444416912625  -4.3986257169530365  -1.0474288760065327 
C  -1.1561711193052586  -2.601214672555715  -0.5998012209931929 
H  -0.3196784027493984  -2.7832859823079534  -1.0129111498427692 
