106

Pd  0.0  0.0  0.0 
O  0.04965  -1.92665  0.0 
O  -0.48794  -4.55792  -0.01435 
O  0.33097  1.91017  0.0 
N  2.01938  0.01647  0.0 
N  2.5047  1.28828  0.29435 
H  3.45924  1.38999  -0.12655 
C  1.10309  -2.79046  0.08144 
C  2.45894  -2.39607  0.21861 
C  3.47536  -3.36409  0.25727 
H  4.51693  -3.07379  0.34118 
C  3.17272  -4.71227  0.22528 
H  3.96616  -5.44453  0.29056 
C  1.85145  -5.11739  0.1471 
H  1.65386  -6.17845  0.16212 
C  0.80984  -4.1694  0.05746 
C  2.91849  -1.00954  0.46388 
H  3.95203  -0.83032  0.05638 
C  -0.91162  -5.87041  -0.04688 
H  -0.55475  -6.35764  -0.97353 
H  -2.01878  -5.89764  -0.00404 
H  -0.51486  -6.4239  0.83366 
C  1.62757  2.14243  -0.45172 
C  1.99688  3.58721  -0.20187 
H  1.3544  4.26607  -0.79957 
H  3.06488  3.78546  -0.43086 
H  1.84445  3.76282  0.86462 
O  -2.65643  -0.27922  0.88461 
N  -1.85701  0.0  -0.14299 
N  -0.14299  0.0  -1.85701 
H  0.69434  0.09867  -2.44097 
N  -2.34775  -0.11192  -1.39989 
N  -1.83695  -0.19094  -3.68601 
C  -2.53475  1.28486  -5.98158 
H  -2.7145  2.26396  -6.47083 
H  -2.69847  0.47244  -6.72078 
C  -3.23295  -0.20007  -4.07917 
H  -3.92148  -0.27389  -3.21127 
H  -3.42371  -1.08229  -4.72675 
C  -3.52077  1.10532  -4.81427 
H  -3.39614  1.94731  -4.09536 
H  -4.56818  1.10594  -5.18027 
C  -1.46337  -0.12987  -2.30752 
C  -0.85823  -0.11275  -4.75585 
H  -0.9809  -0.97297  -5.44546 
H  0.19386  -0.13524  -4.41632 
C  -1.08166  1.21151  -5.48692 
H  -0.37293  1.30718  -6.33814 
H  -0.88616  2.05097  -4.77649 
C  2.00357  4.85601  3.23282 
H  3.02684  4.88721  3.58786 
C  1.01964  3.96906  3.62171 
H  1.11001  3.18217  4.35851 
C  -0.09057  4.31279  2.85845 
C  2.20876  6.6251  1.4729 
H  2.6986  7.38358  2.1096 
H  1.5103  7.11045  0.75734 
H  2.97804  6.08845  0.87413 
C  -1.4083  3.6436  2.81615 
C  -1.52397  2.24429  2.86399 
C  -2.79294  1.64947  2.88295 
H  -2.92604  0.58761  2.9885 
C  -3.93527  2.44585  2.75611 
H  -4.91431  1.9815  2.74328 
C  -3.81529  3.82809  2.62705 
H  -4.6911  4.4425  2.50495 
C  -2.55463  4.42554  2.66351 
H  -2.46693  5.49845  2.58287 
C  1.36977  -0.52414  4.46166 
C  0.66861  -1.51862  5.17138 
C  0.42938  -1.40572  6.55783 
C  0.97937  -0.31325  7.26041 
C  1.74711  0.64018  6.56721 
H  2.16379  1.48639  7.09838 
C  1.93003  0.54177  5.17585 
H  2.47339  1.31648  4.65571 
C  -0.40234  -2.3215  7.2477 
H  -0.88326  -3.1506  6.74356 
C  -0.65889  -2.1644  8.60584 
H  -1.3067  -2.86833  9.11538 
C  -0.09236  -1.09838  9.30221 
H  -0.29908  -0.98349  10.3581 
C  0.72238  -0.17506  8.63626 
H  1.13265  0.65584  9.19413 
C  -0.85146  -2.19125  3.44202 
C  0.06958  -2.59727  4.39278 
C  0.40609  -3.951  4.57062 
C  -0.24897  -4.9248  3.78645 
C  -1.23008  -4.51948  2.86508 
H  -1.75738  -5.26162  2.28931 
C  -1.51754  -3.157  2.66697 
H  -2.24475  -2.87669  1.91512 
C  1.39793  -4.34857  5.48703 
H  1.92222  -3.62052  6.09387 
C  1.74423  -5.68467  5.61717 
H  2.50762  -5.9721  6.33089 
C  1.09731  -6.65332  4.84368 
H  1.37945  -7.69249  4.95488 
C  0.10527  -6.27932  3.93253 
H  -0.37021  -7.04914  3.33509 
N  1.48413  5.65563  2.27994 
N  0.2118  5.36223  2.07866 
O  -0.37744  1.54373  2.84029 
O  1.39768  -0.57209  3.08523 
O  -1.03585  -0.84521  3.32848 
P  0.0  0.0  2.31 
