79

Ni  0.0  0.0  0.0 
P  1.3145413972180555  1.533649541127308  0.0 
N  1.3145413972180555  -1.533649541127308  0.0 
C  1.1612007920470164  -2.4069167798835363  -1.1588030240385443 
C  1.4049740067967764  -2.1080727234616816  -2.4675196089842504 
H  1.7438229844539337  -1.297869390380349  -2.7481959517789414 
C  1.1517334315520706  -3.098608135406815  -3.3953539954630143 
H  1.3145221474226263  -2.956812556189835  -4.227549031316812 
C  0.6671031723575067  -4.336023610134537  -3.0213246453080016 
H  0.4565759788284838  -4.921402134318162  -3.6428889494708105 
C  0.426088230423076  -4.6283804869673135  -1.6974892498252472 
H  0.16854906732703512  -5.535921921744467  -1.499698720136844 
C  0.6868155703020056  -3.6563588842325485  -0.732389903614394 
C  0.5724392098927149  -3.639538379085695  0.7038840357113135 
C  0.10876847581174665  -4.5625518297072  1.634570637274171 
H  -0.1925200938803706  -5.3333221154213035  1.3123661456340343 
C  0.08261068178360764  -4.194684214016264  2.9545830149197307 
H  -0.23356096207634702  -4.801503813307459  3.584650793444381 
C  0.5089819148463168  -2.9541120500514157  3.38128373862683 
H  0.48014463777872707  -2.7329984573392645  4.283681943727702 
C  0.9792559544552932  -2.041689304518938  2.453297752145973 
H  1.2193561025421626  -1.2460662744340547  2.7103000340175707 
C  0.9859336588365284  -2.381539939245359  1.1410882512124183 
C  2.6404498755501806  -0.9019489380756613  0.06607976385556585 
C  3.7519804851470346  -1.725190634527351  0.14872529097360393 
H  3.5851237867419385  -2.6584947086431896  0.23005030210873753 
C  5.0185049678723  -1.1960310526039122  0.1355745679459783 
H  5.701603868947204  -1.72929170183858  0.3350191249739139 
C  5.198295274859168  0.1693098214662112  0.02046087151066217 
H  6.054896726180775  0.5303359947554567  -0.012846121655925177 
C  4.08967776056927  0.9940346175042167  -0.045802827524103265 
H  4.248177960966149  1.931158221338491  -0.13882442507445036 
C  2.7972164068470766  0.48025923801248593  -0.0021225280429930486 
C  1.4304940625095939  2.614777996837753  1.4750794323239016 
H  0.6179708338732276  3.163218329810917  1.473857100681663 
C  1.3722175984299068  1.7749304107632757  2.758005391177042 
H  0.5745471211273665  1.2001276762663053  2.7122882603095158 
H  2.206443294550509  1.2560909245172143  2.7527313562860525 
C  1.3601144467686919  2.6585041501743936  3.9911058537278308 
H  0.5494234226386003  3.049770654619028  4.023838649126008 
H  1.3747219948333087  2.0777323922763724  4.787413146654094 
C  2.505323553703854  3.635398133984242  4.023568998814271 
H  3.3760501020157117  3.0952693185111118  4.035559443364385 
H  2.3529392006000327  4.1335043926269295  4.743896357749137 
C  2.5295145585207126  4.473416772228865  2.7796329927268904 
H  3.212775091228302  5.131014879198392  2.727740949461511 
H  1.7636714673949927  4.9591430186909085  2.6625742328115924 
C  2.60536015760174  3.6004895818252844  1.5330073170109746 
H  3.441370153719712  3.106260219331655  1.5357337872546242 
H  2.593223660579255  4.164352799470402  0.7432761303234192 
C  1.5860035189628838  2.6224612645491883  -1.4565731692561503 
H  2.543775532866529  2.9970096568616658  -1.3821122318518726 
C  0.625352092666778  3.8102470272997815  -1.4986585463157822 
H  0.7494801072927167  4.359340697279304  -0.7096664629756201 
H  -0.29006707253219277  3.490120145744352  -1.5054225460233073 
C  0.8903450721316646  4.641530270838516  -2.7540480873930075 
H  0.2583734222587031  5.376615855757306  -2.7923369447990316 
H  1.784845186699045  5.0167664897839455  -2.709129215740894 
C  0.7615003579951096  3.8073056284475513  -3.996278486983471 
H  0.9297506719335221  4.360148861052553  -4.776289161283829 
H  -0.14328430295112393  3.4629750523683294  -4.062268650594285 
C  1.7487462955861546  2.642133389236699  -3.975521038142569 
H  1.6310996753009817  2.100357893780771  -4.770690972973424 
H  2.657567180250833  2.983439600964343  -3.974913227795946 
C  1.521245011053242  1.7913501594246863  -2.737141592493303 
H  2.1934589618244518  1.0940387846148232  -2.700606664693154 
H  0.6518150792265158  1.3656746465430856  -2.7979063962597035 
Br  -1.5839191898578664  1.5839191898578664  0.0 
C  -1.2937473829822488  -1.2398794889499034  -0.4598005675376139 
C  -1.601562203225019  -1.4938654694550033  -1.7919791134336869 
H  -1.1309417375171225  -1.0428217585005106  -2.480879663633267 
C  -2.60218398542082  -2.411889969420291  -2.121542410022959 
H  -2.8231586547736818  -2.5626138747145775  -3.03270050271447 
C  -3.2683208079706407  -3.09759503004543  -1.143064365570095 
H  -3.9596020908062854  -3.707191723557817  -1.3683280760515548 
C  -2.9347449854640226  -2.896087320001541  0.14198826503765638 
H  -3.3668350933519986  -3.405606940434718  0.8171022443470677 
C  -1.9675509241539992  -1.9516175659140573  0.5112421903797603 
H  -1.7755298364628027  -1.8022912010877177  1.4301324877763764 
