89

Cr  0.0  0.0  0.0 
N  0.36762  1.98881  0.0 
N  -0.61944  2.94733  -0.07756 
H  -1.07971  3.23821  0.79872 
C  -1.00105  3.44827  -1.27174 
O  -0.42309  3.08858  -2.29013 
C  -2.11862  4.41089  -1.37012 
N  -2.65551  4.85963  -0.28901 
O  -3.66656  5.70132  -0.30823 
H  -4.07962  5.96998  0.52337 
C  -2.63585  4.84012  -2.7229 
H  -3.72951  4.65917  -2.77663 
H  -2.16085  4.26932  -3.54942 
H  -2.42641  5.91914  -2.87383 
C  1.75126  2.28864  -0.09079 
N  2.23157  3.62332  -0.19472 
H  1.57378  4.41813  -0.20559 
H  3.23582  3.83092  -0.26852 
C  2.53682  1.20581  -0.08505 
N  1.84948  -0.02363  0.0 
C  2.5099  -1.24968  -0.07322 
C  3.84741  -1.30382  -0.19343 
H  4.36322  -2.25532  -0.26303 
C  4.62849  -0.033  -0.24596 
H  5.70821  -0.0865  -0.34789 
C  4.01585  1.17028  -0.18628 
H  4.61419  2.07237  -0.24146 
C  1.57768  -2.37974  -0.02691 
N  0.1829  -1.96518  0.0 
C  -0.81833  -2.99983  -0.05076 
H  -1.87401  -2.81181  -0.04314 
C  -0.4718  -4.29974  -0.13527 
H  -1.24519  -5.05992  -0.1836 
C  0.9426  -4.72925  -0.18157 
H  1.183  -5.78427  -0.26343 
C  1.92597  -3.83042  -0.13499 
H  2.96172  -4.14944  -0.17949 
S  -3.02297  0.57813  -1.30604 
N  -1.99332  0.0  -0.00668 
H  -2.39372  -0.91067  0.25954 
H  -2.24828  0.69733  0.72724 
N  -0.00668  0.0  -1.99332 
H  0.7729  0.60568  -2.337 
H  0.36102  -0.96113  -2.174 
C  -2.33771  -0.57435  -2.49792 
H  -2.14766  -1.60412  -2.12093 
H  -3.0659  -0.67049  -3.33038 
C  -1.09631  0.10301  -2.97379 
H  -1.33534  1.15136  -3.23494 
H  -0.76663  -0.3686  -3.92704 
Se  0.0  0.0  2.38 
C  0.04138  0.03164  4.31166 
C  -0.14783  -1.17259  5.04573 
C  -0.15073  -1.12147  6.46594 
C  0.07649  0.09021  7.13145 
C  0.28571  1.24487  6.39034 
C  0.24097  1.25494  4.99652 
C  -0.36433  -2.51781  4.34116 
C  -1.79606  -2.99886  4.56095 
C  0.65109  -3.57503  4.79091 
C  0.08621  0.24291  8.64154 
C  -1.32108  0.07781  9.2033 
C  1.09853  -0.68201  9.30956 
C  0.40526  2.60393  4.29859 
C  1.81785  3.14741  4.50697 
C  -0.62417  3.61986  4.81818 
H  -0.30866  -2.02271  7.04101 
H  0.46052  2.16802  6.91532 
H  -0.23735  -2.42633  3.24708 
H  -2.50428  -2.22825  4.18539 
H  -1.99234  -3.17996  5.63737 
H  -1.97072  -3.93737  3.99318 
H  1.68615  -3.21841  4.60342 
H  0.49405  -4.51458  4.2179 
H  0.53754  -3.80773  5.86947 
H  0.3944  1.2821  8.88902 
H  -2.01596  0.76441  8.66828 
H  -1.32401  0.36225  10.2769 
H  -1.68705  -0.96321  9.09174 
H  2.09872  -0.54459  8.84621 
H  0.792  -1.74421  9.21285 
H  1.16998  -0.42139  10.38711 
H  0.24807  2.50517  3.20719 
H  2.56542  2.43577  4.1016 
H  2.02289  3.31669  5.58546 
H  1.9212  4.11794  3.97428 
H  -1.65973  3.24019  4.69138 
H  -0.51928  4.58152  4.28001 
H  -0.47104  3.84524  5.89905 
