78

Ni  0.0  0.0  0.0 
P  1.2841575205168563  -1.559179098917119  1.1252440281870533e-15 
C  0.9423180901183599  -1.9274494890209826  1.7540860964039493 
N  1.2841575205168563  1.559179098917119  5.307005967277214e-16 
C  0.7492174348141287  2.8836958727978708  0.29350371448568247 
C  3.035094688930987  -1.0486719252686145  -0.06449719311232559 
C  -0.35825665263530304  -1.7412980711360326  2.244461185627183 
H  -1.0280384729617555  -1.448549656077743  1.6693889043954542 
C  1.8127058421759026  3.757324464244505  -1.8923612748524639 
H  1.8006632703312317  2.8027410741556458  -2.1139266553382763 
C  1.2843050112590284  -3.1532799316734197  -0.8772534258993577 
C  1.0789056718440406  -5.498664199933413  -2.362596384803627 
H  0.9823761794904137  -6.274953473462428  -2.867115998802667 
C  1.9367054652118438  -2.3709047472913185  2.6342077199123834 
H  2.803470421413784  -2.5082822718802276  2.326090377917352 
C  -0.023840804368375768  3.0429697241293017  1.4573838110223258 
C  3.431993284164564  0.3023959709487245  0.05262519976140858 
C  -0.365596465673359  1.8469601949513292  2.3364165715503282 
H  -0.48693486902361727  1.076355152955529  1.7438059395810193 
C  1.0346053965586974  3.9446259296135766  -0.5866374650056128 
C  4.794417422996767  0.6178860005044299  0.02366389491654173 
H  5.057726851601954  1.5063254401827024  0.11144884141523868 
C  0.8790672172309917  -5.5392099076355645  -0.9910601484449728 
H  0.6817798617456895  -6.344316758972806  -0.5708642925688684 
C  0.980072196429456  -4.356636724554425  -0.24043235730314036 
H  0.8429235428261572  -4.376597436586554  0.6789280871309192 
C  4.029906859381238  -2.023125117371573  -0.1845605594004878 
H  3.786152882647174  -2.91820762006114  -0.23854455893100637 
C  1.4218936296682854  -4.3028741965304045  -2.9915236210949083 
H  1.5918608976488444  -4.290481078887011  -3.9050317099755247 
C  1.5112265689449131  -3.1326938456860627  -2.2547233819133363 
H  1.7225136280761801  -2.3320255062585864  -2.677670221223097 
C  -0.4443794790804856  4.334318983748276  1.779528285991107 
H  -0.942560973729532  4.47648600943118  2.5529704849935544 
C  -1.6661153474726995  2.016004059240593  3.1339233238914015 
H  -1.8225934905301528  1.23085562064863  3.662549940816679 
H  -2.3992078184884886  2.144847400675532  2.5270639643130575 
H  -1.590604380358175  2.7804270724965945  3.7107027016867806 
C  0.7831372509129093  1.509062412479834  3.289266705085921 
H  0.540407887861925  0.7508387896637859  3.8256186922329634 
H  0.9581596497913607  2.26179914157986  3.8583834651225764 
H  1.5695415380784865  1.302663118631227  2.779402744184164 
C  -0.6559924766425054  -1.987891929575407  3.5741044077295503 
H  -1.5250254434374284  -1.8658425190027763  3.8838511817281294 
C  5.371279378558981  -1.681906135299853  -0.2259918406829062 
H  6.014658847427301  -2.3468589817817396  -0.3184667615770914 
C  0.5730974205665524  5.208785926607464  -0.21467742670034956 
H  0.7434878443982238  5.935740470051002  -0.7703990433694049 
C  5.756985136524653  -0.36050555891262603  -0.13236201105782774 
H  6.658422706659493  -0.12976731001622846  -0.17308040549625905 
C  1.165701504430865  4.514879206236843  -3.0527516616723585 
H  1.6778102305874731  4.372958893712332  -3.8524491716642584 
H  1.142712249807035  5.452345714103171  -2.8511761155345625 
H  0.2707747992981635  4.193973201694129  -3.184476749217537 
C  1.6251960769856497  -2.6104576730965747  3.9797372315861863 
H  2.2885016562807805  -2.9036798727255486  4.563830811520664 
C  0.33515894776782096  -2.41373325239787  4.445602928477682 
H  0.13541209865479953  -2.5671424471248403  5.340330906827911 
C  -0.1317835356009116  5.411660631777441  0.9591114349075098 
H  -0.3963424161618685  6.269905406819241  1.198889112829755 
C  3.2792228431367576  4.184676992547875  -1.7519845230538333 
H  3.7336193781818783  4.049173104542493  -2.587393970734689 
H  3.70240341645487  3.656893471352957  -1.068953852350628 
H  3.321035382242443  5.113021985759553  -1.5119565972777842 
C  2.5394981720264087  1.4486425735624004  0.24782220487704743 
H  2.9413766349570247  2.2068702690343764  0.6036610347590385 
Br  -1.5839191898578664  1.5839191898578664  0.0 
C  -1.308147545195113  -1.308147545195113  0.0 
C  -2.5481111008682706  -1.081588847540519  0.5874691967409313 
H  -2.7399447190521347  -0.23895174706744582  0.9782000501948406 
C  -3.514692573752534  -2.090568128666735  0.6049610958635798 
H  -4.3504064840370384  -1.9365173000894942  1.0287619599160838 
C  -3.2692344052199704  -3.300825455744854  0.016423527177974795 
H  -3.920165040096455  -3.990528127682657  0.045080339651694334 
C  -2.0939695739763726  -3.5035118821402764  -0.6007549227026172 
H  -1.9425337635726068  -4.327915038834382  -1.0474288760065322 
C  -1.0854604411866036  -2.53050399443706  -0.5998012209931928 
H  -0.24896772463074335  -2.712575304189299  -1.0129111498427692 
