78

Pd  0.0  0.0  0.0 
S  0.10898  1.97972  0.0 
N  2.07533  0.01713  0.0 
N  2.61905  1.26011  0.15524 
C  1.84955  2.26671  0.16802 
C  2.38446  3.63414  0.34078 
O  0.2157  -1.99686  0.0 
C  1.57343  4.76254  0.1123 
H  0.54676  4.66023  -0.21432 
C  2.97841  -1.07841  0.28938 
C  3.71867  3.82093  0.74371 
H  4.36812  2.9797  0.93431 
C  2.52022  -2.48407  0.23448 
H  3.29345  -3.24615  0.28776 
C  2.0851  6.04885  0.28574 
H  1.45656  6.91062  0.09986 
C  1.24825  -2.85823  0.11855 
C  4.2195  5.11643  0.92597 
H  5.24656  5.2536  1.25028 
C  3.4078  6.22456  0.69746 
H  3.79524  7.22287  0.84097 
C  0.90657  -4.31548  0.07947 
H  1.8092  -4.9636  0.07853 
H  0.32085  -4.52568  -0.83948 
H  0.29247  -4.55678  0.9709 
C  4.48371  -0.77548  0.16334 
H  5.09401  -1.69843  0.0876 
H  4.80746  -0.17601  1.0357 
H  4.69173  -0.15923  -0.73062 
C  1.78279  -0.37339  -2.43739 
C  -1.89588  -0.11381  -2.02616 
N  0.48869  0.0  -1.88089 
N  -1.84869  0.0  -0.59911 
C  -3.01238  0.33535  0.14507 
H  -2.93578  0.60744  1.19112 
C  2.17918  -1.71812  -2.58033 
H  1.50874  -2.52761  -2.35259 
C  -4.21358  0.31596  -0.47211 
H  -5.11317  0.56955  0.07787 
C  -4.332  -0.09257  -1.9015 
H  -5.31155  -0.19379  -2.35885 
C  2.71336  0.63249  -2.79112 
H  2.44663  1.68004  -2.71489 
C  -0.6077  -0.68992  -2.56359 
H  -0.59121  -1.78036  -2.35832 
H  -0.55107  -0.53553  -3.66572 
C  -3.23978  -0.35512  -2.63317 
H  -3.32314  -0.66214  -3.67152 
C  4.01198  0.3028  -3.18392 
H  4.71632  1.09515  -3.40612 
C  4.41605  -1.03791  -3.22433 
C  3.48671  -2.04489  -2.9413 
H  3.77979  -3.08716  -2.96002 
C  5.84074  -1.38193  -3.5316 
H  6.00538  -2.48049  -3.51005 
H  6.50342  -0.92446  -2.76325 
H  6.11207  -0.99192  -4.53134 
H  0.36697  0.97712  -2.1827 
C  -0.65688  -0.69241  2.9518 
C  -0.24983  -0.3289  4.35349 
C  -1.20793  -0.24781  5.38275 
H  -2.2482  -0.45683  5.18537 
C  -0.83662  0.15788  6.66827 
H  -1.59643  0.23284  7.43477 
C  0.4989  0.46982  6.96368 
C  1.46186  0.38991  5.95158 
H  2.49929  0.62785  6.16338 
C  1.08895  0.00685  4.65827 
H  1.86515  -0.03884  3.90296 
C  0.8918  0.88764  8.35058 
H  0.0099  0.92117  9.02647 
H  1.35198  1.89837  8.32919 
H  1.62094  0.16146  8.76595 
N  0.0  0.0  1.91 
H  0.64342  0.73167  2.23922 
N  -1.59573  -1.54437  2.71308 
H  -1.87928  -1.76385  1.75384 
H  -2.07814  -2.02419  3.49276 
