45

Pd  0.0  0.0  0.0 
P  1.5212537107596522  -1.4757666304331454  -2.211203300680666e-15 
N  1.521253710759649  1.4757666304331454  -1.5129969175750304e-15 
H  1.746825406473669  1.8630570313769907  -0.7813113434665284 
H  1.232914966714619  2.1267444342326756  0.5500429870863601 
C  2.7440457997128007  0.8711260411970928  0.5909712979848482 
H  2.609167539824035  0.7068313281984435  1.5377160536028014 
H  3.4950832448242863  1.4763348232508346  0.49002865998956746 
C  3.028364180137513  -0.44246554233873026  -0.13215833093138635 
H  3.7830210097326162  -0.8945939386856261  0.2766493044697671 
H  3.239488842627528  -0.27328355255033154  -1.064560819784634 
C  1.7965727375416143  -2.2982454153367895  1.6275416221637204 
C  2.895118634623729  -3.1409715275507377  1.8322138034606135 
H  3.468138473207859  -3.3295842521237984  1.123030318939035 
C  3.1417483668711585  -3.698528598588789  3.0735514640941197 
H  3.881719886954412  -4.247369379574787  3.1963207867783123 
C  2.3035415255855005  -3.446152204977908  4.112934794328902 
H  2.4686875715010994  -3.8284723620845895  4.945386367087571 
C  1.2121981653777367  -2.629145260833818  3.9359604081855357 
H  0.6421361004734811  -2.4483242695625367  4.649584665952032 
C  0.9639096600039406  -2.0752929828756828  2.6886844835001193 
H  0.2149203133587929  -1.5396975820174796  2.570303635422264 
C  1.7713940152615697  -2.865383848839889  -1.1579413950503776 
C  2.373952129927803  -2.7049311457383842  -2.3875619050116135 
H  2.755791661641443  -1.884697753115378  -2.6055566151466767 
C  2.4234590777329044  -3.7341187209813693  -3.305556413211142 
H  2.864963330289919  -3.61201986653911  -4.114802404685914 
C  1.8304025464103089  -4.936352785915645  -3.0335047384006084 
H  1.846639696630736  -5.621424855679998  -3.6619819250840178 
C  1.205631905262575  -5.123698911175877  -1.8234724267205116 
H  0.7881094029624341  -5.933662143403975  -1.6392230779790689 
C  1.1962353735053997  -4.100508320698296  -0.870694435397717 
H  0.8049244133138924  -4.246359389262452  -0.04000652876086489 
Br  -1.654629867976521  1.654629867976521  0.0 
C  -1.3788582233137676  -1.3788582233137676  0.0 
C  -2.618821778986925  -1.1522995256591737  0.5874691967409313 
H  -2.8106553971707884  -0.30966242518610043  0.9782000501948407 
C  -3.5854032518711887  -2.161278806785389  0.6049610958635797 
H  -4.421117162155692  -2.007227978208148  1.0287619599160838 
C  -3.3399450833386255  -3.3715361338635086  0.016423527177974573 
H  -3.9908757182151104  -4.061238805801311  0.045080339651694 
C  -2.164680252095028  -3.57422256025893  -0.6007549227026177 
H  -2.0132444416912625  -4.3986257169530365  -1.0474288760065327 
C  -1.1561711193052586  -2.601214672555715  -0.5998012209931929 
H  -0.3196784027493984  -2.7832859823079534  -1.0129111498427692 
