62

Pd  0.0  0.0  0.0 
P  1.5524594656544175  1.442903187154287  -4.897726591265917e-16 
N  1.5524594656544175  -1.442903187154287  6.661338147750939e-16 
C  2.1396466209225506  4.020371885754041  -0.8664810283131501 
H  2.5017927036819527  4.1695794430709  -0.023309195540275073 
C  2.1906660597125467  5.014753835820786  -1.8139036184211976 
H  2.5733216834059003  5.835209498085127  -1.6025571731843866 
C  2.251479624313755  -4.827096450065043  -1.0277242174130892 
H  1.5794326827107017  -4.796361532854512  -1.6701766850292212 
C  1.5562964064904672  2.800287332838187  -1.1546543634053594 
C  1.7239377922450003  2.0987848834629985  1.6876636939737062 
C  2.9537471650491245  2.1496562590712016  2.331607239408312 
H  3.7239345146887897  1.868829545534619  1.8910188335017382 
C  1.380158851550871  -2.685148253183333  -0.254484349825346 
H  0.5301860845009825  -2.9309638790393695  -0.5405667039798572 
C  2.3772517392641292  -3.7834816681406744  -0.14459398236851476 
C  4.10721865747073  -5.997111867613276  0.024458263679032997 
C  1.682978149367067  4.807210517831025  -3.0628632842418577 
H  1.7093154810933784  5.489484566959404  -3.6939638204827387 
C  3.1044571830212617  -5.937264744279723  -0.9896765780401019 
C  3.3786885030056344  -3.825090897737296  0.8670439865904233 
H  3.4688906567235662  -3.1237185471807045  1.4715932710489945 
C  3.041946368775677  0.46874759410152844  -0.3345967213741375 
H  3.165590064847719  0.367175945840744  -1.2912153740729326 
H  3.821556984431888  0.9165266313592184  0.029361740196316807 
C  3.026494872476703  2.6125506694143272  3.6161378135626103 
H  3.8588242414928633  2.668266930017059  4.0289868898334475 
C  1.0644254485094005  2.5747978420001507  -2.4196233670637204 
H  0.6909620751132547  1.74825576653901  -2.6241574625685224 
C  1.119004476257396  3.5651060121679157  -3.3997799401830857 
H  0.7913240206594554  3.4063462408683707  -4.2554871529819955 
C  4.202512946508097  -4.911266930857676  0.933153829751139 
H  4.851305560231527  -4.940074899659784  1.6000043117270164 
C  2.8749043379453822  -0.8882831945418309  0.3123521627041041 
H  3.5644891790933855  -1.4886434735349439  -0.009489385679881154 
H  2.9729588910827784  -0.8031279248786409  1.2739305342670444 
C  1.9160345950999207  2.99608308858614  4.31387145601691 
H  1.9815921250218802  3.2567842557530637  5.20380283635382 
C  0.583214123464169  2.521464409317276  2.3629857059848938 
H  -0.2452163560513021  2.4883482270083026  1.942536292762491 
C  4.965173107907775  -7.132552207329439  0.0716165706940434 
H  5.636216687300697  -7.178077444632127  0.714351342838901 
C  3.0106187177980264  -6.998249035276583  -1.9313945436234539 
H  2.3929624453176372  -6.948076046787466  -2.625320368399942 
C  0.681615847061496  2.990433877278986  3.6632167619564067 
H  -0.07631166423679625  3.302071202640245  4.103096251201969 
C  3.821280784004274  -8.08832766910513  -1.8246454148929312 
H  3.719356896248671  -8.795318636400651  -2.4209138722737666 
C  4.809294100781119  -8.161731731098289  -0.824641435123564 
H  5.3591571155501185  -8.90899777403115  -0.7713380011945873 
Br  -1.654629867976521  1.654629867976521  0.0 
C  -1.35204078  -1.31992066  -0.4819701 
C  -1.63807002  -1.59921746  -1.81393823 
H  -1.15796809  -1.15933936  -2.50351594 
C  -2.63068217  -2.5263265  -2.14228996 
H  -2.83682226  -2.69439953  -3.05388981 
C  -3.31015444  -3.19615732  -1.16198741 
H  -3.99601236  -3.81199015  -1.38686634 
C  -2.99747104  -2.9701089  0.1242356 
H  -3.43865917  -3.46858118  0.80170842 
C  -2.03898543  -2.01594063  0.49125628 
H  -1.86191301  -1.84921651  1.41015686 
