15

Ru  0.0  0.0  0.0 
O  1.36071  1.29726  0.0 
O  1.36071  -1.29726  0.0 
C  1.32788  -2.60166  -0.55161 
H  1.05549  -2.56191  -1.631 
H  0.55515  -3.20018  -0.02868 
H  2.27554  -3.16063  -0.39473 
C  2.51883  -0.66191  -0.48372 
H  2.42868  -0.48862  -1.58215 
H  3.45283  -1.22083  -0.24366 
C  2.57581  0.65848  0.20862 
H  2.73362  0.52135  1.29876 
H  3.40399  1.26387  -0.21663 
Cl  -1.58392  1.58392  0.0 
Cl  -1.58392  -1.58392  0.0 
