66

Ni  0.0  0.0  0.0 
P  1.3688394418265408  1.4853883608336238  -1.6242760133333747e-15 
N  1.3688394418265428  -1.4853883608336238  -1.6653345369377348e-16 
C  1.4164693073759458  -2.446163079843188  1.2108649409491867 
C  0.7536478487828134  -3.7580244161649574  0.7908796456202325 
C  0.4793287010403928  -3.566517711588144  -0.6720210096821193 
C  -0.07161123310202755  -4.452866251616506  -1.6329459362798013 
C  -0.13301884325146318  -4.0220012523507105  -2.9812632423407623 
C  0.3476972204349775  -2.7726952735704864  -3.396582790999158 
C  0.8130025431154773  -1.8553658694035566  -2.406589679439302 
C  0.8748914715442206  -2.3121192565239737  -1.1221555457088102 
C  1.1027493412326148  2.5698957007833787  -1.4227750025780883 
C  1.692712825409931  2.2919994004728386  -2.668127568565363 
C  1.4350113285493347  3.1174066692573605  -3.745858016847094 
C  0.6024530229957854  4.219553557685398  -3.6135673362145253 
C  0.020482523567742383  4.487256035693799  -2.4154619731250992 
C  0.2590164743553087  3.6671613102198855  -1.3216728181360788 
C  1.7771804365723691  2.554327078724821  1.398857454997883 
C  2.5142518551994373  3.716938517951946  1.2120744653512572 
C  2.8868799484005265  4.496199905425312  2.3465784204569378 
C  2.5042924799068773  4.090412081921886  3.605295752207012 
C  1.8090335500840828  2.9463419822704546  3.786291297967741 
C  1.4223258162317547  2.1582432527617468  2.699500811661588 
C  2.8219348956515566  0.4909548685912193  -0.34511464990592483 
C  4.080457735807375  1.1031232778614277  -0.6178923240249292 
C  5.169631501519814  0.31742605498496435  -0.8291173747362566 
C  5.033269260206905  -1.0648714566554824  -0.8169379471328588 
C  3.838750700906847  -1.716979902191159  -0.5758017890213207 
C  2.711473425488885  -0.8952794720659267  -0.30452516367682153 
C  3.8547436272030247  -3.2236257760985216  -0.5873869927918562 
H  0.945774429414295  -2.066655420523955  1.9437404818009203 
H  2.318296671328257  -2.6053929528087068  1.4625946237087473 
H  -0.05251923795744662  -3.8990594818244366  1.2718430418482196 
H  1.3404296734380297  -4.49256610827009  0.931926633583936 
H  -0.38498453942162114  -5.315485179289331  -1.3810468761249317 
H  -0.5221350341023261  -4.596102051498898  -3.6266525221053922 
H  0.36577284889204864  -2.547390448364922  -4.321713093926815 
H  1.0637595591639801  -0.9674191513750237  -2.6347393558467225 
H  2.2649782517782744  1.5395836218997734  -2.769283576482641 
H  1.8308546356909106  2.930151566595926  -4.587868184670789 
H  0.4364769396605188  4.783303885263058  -4.3623550483978875 
H  -0.5518991288384729  5.241429920139281  -2.3266779317147854 
H  -0.15841822865925126  3.86212056305628  -0.4899581684799355 
H  2.7695399849297178  3.988709558202621  0.33628734938077814 
H  3.4034160912605267  5.2864284180152765  2.235368164593646 
H  2.729346075287972  4.6247531006939475  4.357131847951088 
H  1.579997192083289  2.6734400189263363  4.668582681308118 
H  0.9213145078725091  1.3635962862690492  2.83950580278733 
H  4.155996423764547  2.0511631354039292  -0.658018937793126 
H  6.02150153298  0.710761020712114  -0.9827804940474967 
H  5.805885507880614  -1.5941307606389858  -0.9800027286692299 
H  4.454157354788709  -3.5365126528606154  0.07910723488901611 
H  4.1423546215178675  -3.5248699333833375  -1.4408654598025963 
H  2.9822665200683014  -3.547745159752374  -0.4115799887627291 
Br  -1.5839191898578664  1.5839191898578664  0.0 
C  -1.2937473829822488  -1.2398794889499034  -0.4598005675376139 
C  -1.601562203225019  -1.4938654694550033  -1.7919791134336869 
H  -1.1309417375171225  -1.0428217585005106  -2.480879663633267 
C  -2.60218398542082  -2.411889969420291  -2.121542410022959 
H  -2.8231586547736818  -2.5626138747145775  -3.03270050271447 
C  -3.2683208079706407  -3.09759503004543  -1.143064365570095 
H  -3.9596020908062854  -3.707191723557817  -1.3683280760515548 
C  -2.9347449854640226  -2.896087320001541  0.14198826503765638 
H  -3.3668350933519986  -3.405606940434718  0.8171022443470677 
C  -1.9675509241539992  -1.9516175659140573  0.5112421903797603 
H  -1.7755298364628027  -1.8022912010877177  1.4301324877763764 
