54

Pd  0.0  0.0  0.0 
S  -0.26681  2.10091  0.0 
N  2.11505  0.01599  0.0 
N  0.55176  -2.1169  0.0 
O  4.10566  1.01221  -0.24106 
C  1.94306  -2.40307  0.10091 
C  2.34491  -3.84393  0.26492 
H  3.37499  -4.11225  0.46601 
C  1.41219  -4.79829  0.12994 
H  1.6961  -5.84644  0.22377 
C  -0.0092  -4.44712  -0.11875 
H  -0.74026  -5.24123  -0.24975 
C  -0.40003  -3.16107  -0.1694 
H  -1.44045  -2.92572  -0.33526 
C  2.80752  -1.21221  0.40501 
H  3.72592  -1.37589  -0.19595 
H  3.07687  -1.16413  1.47699 
C  2.89446  1.07163  -0.34647 
C  2.33535  2.33802  -0.90411 
H  3.1787  3.05358  -1.03938 
H  1.9107  2.15749  -1.90795 
C  1.35718  2.95811  0.03674 
H  1.16384  3.99988  -0.2876 
H  1.73641  3.02526  1.07559 
C  -0.83228  2.90638  -1.5456 
H  -0.89613  4.00444  -1.50345 
H  -1.84966  2.52725  -1.75041 
H  -0.19993  2.57462  -2.40111 
S  -3.05449  -0.77631  -1.18571 
S  -1.16786  -0.853  -3.0013 
N  -1.99693  0.0  -0.00307 
N  -2.44704  0.20158  -2.48599 
N  -0.00307  0.0  -1.99693 
N  -0.60135  0.77013  2.99866 
H  -1.50401  1.21897  2.79306 
C  0.0  0.0  1.95 
H  0.74784  -0.73578  2.30073 
C  2.35775  0.4138  3.89365 
H  2.13484  0.88489  2.92235 
H  2.93746  -0.52113  3.72948 
H  3.00509  1.13064  4.43809 
C  -2.69098  0.3061  4.90784 
H  -3.37533  0.03317  5.73537 
H  -2.93601  -0.32504  4.02629 
H  -2.8474  1.3771  4.66009 
C  -0.23511  0.36368  4.34069 
C  -1.25389  0.08933  5.28259 
C  -0.93919  -0.42862  6.54288 
H  -1.7196  -0.65667  7.25314 
C  0.37784  -0.68901  6.89815 
H  0.60552  -1.10844  7.87563 
C  1.40355  -0.42049  6.01585 
H  2.42778  -0.61891  6.31938 
C  1.13359  0.1225  4.73838 
