39

Fe  0.0  0.0  0.0 
O  1.15068  1.37115  0.0 
O  1.15068  -1.37115  0.0 
O  5.3326  -3.48688  -0.79167 
C  3.13138  2.62976  -0.50897 
C  2.4627  1.29883  -0.30026 
C  3.1168  0.11894  -0.44486 
C  4.58721  0.13688  -0.81218 
C  5.28983  -1.17663  -0.90804 
C  4.64624  -2.33295  -0.69504 
C  3.19812  -2.34944  -0.36694 
C  2.46982  -1.22442  -0.24882 
H  4.90527  -4.34687  -0.65089 
H  2.41388  3.4567  -0.31015 
H  3.45928  2.71338  -1.56687 
H  3.99393  2.74772  0.17605 
H  5.16047  1.06527  -1.00871 
H  6.34542  -1.18272  -1.15695 
H  2.71234  -3.31102  -0.23341 
O  -1.28039  1.33667  0.0 
C  -3.7032  1.62677  0.2872 
H  -3.40524  2.6965  0.23673 
H  -4.17545  1.43834  1.27396 
H  -4.42539  1.4118  -0.52627 
C  -2.49394  0.76302  0.1368 
C  -2.55613  -0.58456  0.16198 
H  -3.5081  -1.08773  0.26828 
C  -1.28039  -1.33667  0.0 
C  -1.32413  -2.81235  -0.11748 
C  -0.54981  -3.5018  -1.06002 
H  0.12769  -2.96832  -1.71386 
C  -0.70067  -4.88735  -1.20863 
H  -0.12864  -5.41408  -1.95962 
C  -1.60221  -5.59149  -0.40258 
H  -1.71832  -6.66073  -0.51911 
C  -2.36376  -4.91393  0.54837 
H  -3.06229  -5.45366  1.17651 
C  -2.23759  -3.53163  0.68046 
H  -2.84927  -3.02553  1.4183 
