18

Fe  0.0  0.0  0.0 
O  1.3326849690482427  2.5629664157804584  -0.2846993058522272 
N  1.3126161043884843  1.33189299964374  2.5242935189902206e-15 
N  1.3126161043884839  -1.33189299964374  2.220446049250313e-16 
C  2.6167236586096436  0.7010374089733578  0.05487923781594538 
C  2.6133430842510186  -0.6855963637801602  0.02520143506120032 
C  3.8147367036173043  -1.3859133864309996  0.030583733033827897 
C  5.00601394658363  -0.6685192036733918  0.08791232045872625 
C  5.00356166032772  0.7205159519245861  0.14772981626908252 
C  3.803479812003165  1.4202519068768882  0.12659310250075773 
H  1.255360714871538  -1.9552794017211492  0.6741471012147542 
H  1.1873911407278206  -1.7608379562977778  -0.8045731804113696 
H  3.8219779514550294  -2.335269618754631  -0.004618518002625971 
H  5.833062357192732  -1.1354354500733232  0.08560681471207313 
H  5.825714152984706  1.1928068455386063  0.20439030185825874 
H  3.795085093907795  2.369839332697356  0.16034068658847014 
Cl  -1.5202795795510768  1.5202795795510768  0.0 
Cl  -1.5202795795510768  -1.5202795795510768  0.0 
