53

Pd  0.0  0.0  0.0 
P  1.5334272773757505  -1.4631133876087656  -4.628223902326989e-15 
C  2.9631725296657216  -0.9812711900247523  -1.0056805955082173 
C  3.6663519680375334  -1.9157728196179393  -1.7236923166791156 
H  3.3727477241155093  -2.796584837274497  -1.7405777394680084 
C  4.81476600339402  -1.5639511601624894  -2.4306008986996384 
H  5.268704522150992  -2.2047144550238778  -2.9280705270661387 
C  5.272383613641962  -0.28225844524254257  -2.388546204406408 
H  6.049956337478477  -0.05245874014278641  -2.841606437357304 
C  4.587385065363417  0.6691639440194909  -1.6796461860207568 
H  4.909066575688044  1.5416219714087758  -1.6480989775980452 
C  3.418186899829124  0.3445936311361374  -1.0053660278475445 
C  2.763628439383531  1.4166849764033838  -0.2687809212494019 
H  3.293806900295141  2.1221043675052744  0.0245636240260181 
C  1.1901016345872535  -3.174787876551153  -0.4679079791023972 
C  1.4056151305186242  -4.227736484668154  0.37639489412256594 
H  1.7708126881391744  -4.083794397346952  1.2179418918628078 
C  1.0755634895279078  -5.529457418349662  -0.03889737054736274 
H  1.2258867382425724  -6.251231560356477  0.5310448009281346 
C  0.5366662517702663  -5.734775090612211  -1.2650372812402297 
H  0.3040421182668074  -6.594768024622912  -1.5333062991372524 
C  0.3323404772243017  -4.680460118810119  -2.112256991876244 
H  -0.019728322431575407  -4.833015099777655  -2.959401647818098 
C  0.6427206194178303  -3.399573995511843  -1.72552208722727 
H  0.48633448065050966  -2.6869677109749994  -2.3012124543866004 
C  2.156570251658912  -1.464694454407546  1.6927133643441796 
C  3.506379514357346  -1.6482290712555776  1.954248311821567 
H  4.106817337321837  -1.7990596677554627  1.2609603111226084 
C  3.944997553332889  -1.6010935104821817  3.268329349960326 
H  4.847129935972511  -1.7408480925478849  3.4523472050304287 
C  3.095714412013038  -1.3608471440850531  4.282794790132083 
H  3.418546305200062  -1.3019180578432041  5.152614214803663 
C  1.7496591154409258  -1.200691128847595  4.041118561773944 
H  1.1546003144745272  -1.060635517481133  4.741563783841447 
C  1.2992912953648452  -1.2533487667671799  2.7190808089814302 
H  0.3940100227995078  -1.1406208323522282  2.5401859226793215 
C  1.088432641012947  2.5540917311319467  0.8889275659871108 
H  0.14061191791287975  2.49127402966165  1.0240650265377635 
H  1.3001585414685484  3.399882180785669  0.4867549061122509 
H  1.538661213045557  2.481372572178798  1.7336887433897248 
N  1.5334272773757482  1.463113387608766  -4.0122431761750295e-16 
Br  -1.654629867976521  1.654629867976521  0.0 
C  -1.35204078  -1.31992066  -0.4819701 
C  -1.63807002  -1.59921746  -1.81393823 
H  -1.15796809  -1.15933936  -2.50351594 
C  -2.63068217  -2.5263265  -2.14228996 
H  -2.83682226  -2.69439953  -3.05388981 
C  -3.31015444  -3.19615732  -1.16198741 
H  -3.99601236  -3.81199015  -1.38686634 
C  -2.99747104  -2.9701089  0.1242356 
H  -3.43865917  -3.46858118  0.80170842 
C  -2.03898543  -2.01594063  0.49125628 
H  -1.86191301  -1.84921651  1.41015686 
