56

Fe  0.0  0.0  0.0 
S  1.42772  1.45193  0.0 
C  4.64967  4.29129  1.48084 
H  4.82287  4.69552  2.47067 
C  3.61838  -3.17666  -0.43103 
H  4.43635  -3.86768  -0.60727 
N  4.15022  0.99982  -0.16769 
N  1.42772  -1.45193  0.0 
C  2.87677  0.39341  -0.09781 
C  2.73451  -0.9323  -0.12272 
C  4.27853  2.39886  0.02122 
C  4.26381  4.64381  -0.88746 
H  4.15381  5.31768  -1.72709 
C  4.52124  5.16178  0.39032 
C  4.14403  3.26309  -1.08272 
C  1.1984  -2.85564  -0.13691 
H  0.19941  -3.26643  -0.09673 
C  3.86976  -1.86589  -0.31282 
H  4.88834  -1.50052  -0.40056 
C  2.23003  -3.69279  -0.34565 
H  2.04765  -4.75635  -0.4658 
C  4.63462  6.6388  0.60297 
H  3.97781  6.95093  1.44379 
H  4.32467  7.20115  -0.30154 
H  5.68721  6.89798  0.84623 
C  4.51024  2.90883  1.30879 
C  4.55727  1.98959  2.49951 
H  4.82653  2.52732  3.43069 
H  5.28746  1.16904  2.33509 
H  3.54805  1.53954  2.65022 
C  3.84961  2.72042  -2.4546 
H  4.57008  1.91767  -2.71265 
H  3.90208  3.51219  -3.22728 
H  2.82208  2.2974  -2.46361 
S  -1.68876  1.39434  0.0 
S  -1.68876  -1.39434  0.0 
N  -3.91403  -0.00348  0.70434 
C  -2.80355  0.00188  -0.2738 
C  -4.70982  1.23562  0.64992 
H  -4.16091  2.04556  1.17974 
H  -5.68  1.12023  1.17807 
H  -4.89598  1.55836  -0.39802 
C  -4.75016  -1.2314  0.6493 
H  -5.34766  -1.27909  1.5856 
H  -4.10349  -2.12745  0.69126 
C  -5.66609  -1.40419  -0.5542 
C  -7.02394  -1.71076  -0.33444 
H  -7.41775  -1.77836  0.6717 
C  -7.87871  -1.97892  -1.40784 
H  -8.91288  -2.23967  -1.22322 
C  -7.39696  -1.92806  -2.71519 
H  -8.05784  -2.14586  -3.54538 
C  -6.05875  -1.61083  -2.94456 
H  -5.67884  -1.58268  -3.96569 
C  -5.19322  -1.35695  -1.88443 
H  -4.16022  -1.14587  -2.10288 
