72

Pd  0.0  0.0  0.0 
O  3.83322  1.31641  0.1127 
N  -0.03755  -2.01272  0.0 
N  2.84533  -1.11193  -0.06258 
N  2.02743  -0.02003  0.0 
N  0.41012  2.03275  0.0 
C  -1.36003  -2.6575  0.07558 
H  -2.30755  -2.14073  0.10662 
C  -1.45882  -4.13229  0.0784 
H  -2.44025  -4.59555  0.11672 
C  -0.36966  -4.86445  0.03587 
H  -0.45009  -5.94549  0.03966 
C  0.9451  -4.22602  -0.0129 
H  1.73989  -4.9441  -0.02824 
C  1.12653  -2.87249  -0.03237 
C  2.53177  -2.34754  -0.08664 
C  2.61614  1.19021  0.08739 
C  1.73137  2.32335  0.08957 
C  2.18141  3.65786  0.12567 
H  3.23539  3.89668  0.17533 
C  1.24788  4.69502  0.0939 
H  1.5628  5.72966  0.13624 
C  -0.10216  4.3956  -0.01553 
H  -0.8461  5.18296  -0.04875 
C  -0.49846  3.06551  -0.09599 
H  -1.55717  2.87879  -0.21707 
C  3.75932  -3.22309  -0.1798 
H  4.31791  -2.93549  -1.09596 
H  3.62013  -4.30755  -0.23871 
H  4.3983  -3.02535  0.70799 
N  0.39313  0.0  -1.82849 
N  -1.75313  0.0  -0.65151 
N  -0.54877  -0.10058  -4.10292 
N  -3.13189  0.02356  -2.70674 
O  1.62173  0.00786  -2.37566 
O  -2.90696  0.13302  0.05156 
C  -0.70999  -0.0378  -2.68921 
C  -1.86143  -0.01028  -2.05486 
H  -2.83279  -0.37318  0.8955 
H  0.3953  -0.14669  -4.51416 
H  -1.3461  -0.17188  -4.7457 
H  -3.22483  0.10385  -3.72755 
H  -3.99852  0.03382  -2.1504 
N  0.0  0.0  1.91 
N  -1.45331  1.43809  3.11458 
H  -2.23193  2.10817  3.2202 
C  -1.06767  0.92921  1.95203 
H  -1.52796  1.35525  1.14683 
C  -0.68641  0.76579  4.01786 
C  0.17398  -0.06911  3.34337 
C  -1.02048  1.01539  5.41515 
C  -1.62397  2.25867  5.75047 
H  -1.77598  3.05074  5.02829 
C  -2.06325  2.50372  7.04301 
H  -2.53249  3.45281  7.26494 
C  -1.91428  1.51822  8.01277 
H  -2.26729  1.70146  9.01071 
C  -1.32783  0.28194  7.67982 
H  -1.24137  -0.49239  8.42227 
C  -0.87628  0.03503  6.38332 
H  -0.47513  -0.93358  6.12073 
C  1.1496  -0.93965  3.97678 
C  2.12085  -0.3758  4.80754 
H  2.15128  0.6974  4.95693 
C  3.07151  -1.19221  5.4129 
H  3.83663  -0.74687  6.03215 
C  3.02981  -2.57658  5.21623 
H  3.76333  -3.20747  5.6957 
C  2.0409  -3.14347  4.40401 
H  1.99848  -4.21562  4.26678 
C  1.10699  -2.32305  3.76864 
H  0.33538  -2.7646  3.14555 
