57

Pd  0.0  0.0  0.0 
P  1.5076944642400167  1.4896165286744096  -2.9114690845743836e-15 
N  1.5076944642400203  -1.4896165286744096  3.3306690738754696e-16 
C  1.111108392944973  -2.5181091141879177  -0.9917339106829655 
C  0.5182919761605735  -1.94183082814882  -2.2534972296262423 
C  1.742039572526123  -2.115918027779162  1.3338603309348223 
C  2.815581227659574  -3.1513714953723193  1.4297450593468826 
C  2.747455971632868  -0.806063845551251  -0.4808543066066753 
C  2.9926908644814905  0.48744477086740745  0.23432276697736276 
C  1.705327383732611  2.8749365021553466  1.1205821880645943 
C  1.7197044611472485  2.6051345146883795  2.496690638443369 
C  1.91449711975817  3.6268503896823123  3.4089905841502133 
C  2.0473298169488623  4.902504283433743  2.940506221642901 
C  1.9872361208621532  5.173829414579854  1.5921264713873762 
C  1.8131811286261401  4.176392704259385  0.6975426583308152 
C  1.6615401504168679  2.182146404747959  -1.6705455981775499 
C  2.8606131380590822  2.712642438316558  -2.1335030785953193 
C  2.946334165344144  3.2624301918995506  -3.4123827255877264 
C  1.8068638498233869  3.2969017313941444  -4.206307969557186 
C  0.6174126491951817  2.786308605338516  -3.763229510422827 
C  0.5559053893008725  2.230512869279682  -2.50544127436751 
H  1.887426128977542  -3.028010129233662  -1.20997045110781 
H  0.4748552631715004  -3.0973928146500036  -0.573400539754444 
H  0.2831611218334078  -2.6532577622625686  -2.852446408405957 
H  -0.2724781686955793  -1.4518805080825723  -2.0479290611974603 
H  1.1394241682411934  -1.3722747419559551  -2.6813269558512878 
H  1.9468517019215494  -1.4178677477347212  1.9431945973128015 
H  0.909555756370266  -2.5192139824330795  1.6019256379000986 
H  3.639029597239281  -2.7906753634099974  1.1989402651506844 
H  2.846931039570289  -3.4818119110932875  2.338793644930353 
H  2.5994927711983724  -3.889516037161524  0.8658450820361694 
H  3.478574241335526  -1.394203325165935  -0.33345879030592607 
H  2.6550233006454786  -0.6398142402112919  -1.4073806527288277 
H  3.7546778474515223  0.9362469304372445  -0.13375549827293998 
H  3.1505367165311577  0.3413438141375098  1.1651616184620486 
H  1.575438045727468  1.7099457400400129  2.823066861727918 
H  1.990558240132964  3.4408791785233435  4.3291584245942385 
H  2.181060611070672  5.613694505619815  3.5727909933798947 
H  2.0555835290447577  6.081881308447939  1.2823344123585718 
H  1.7745275341423907  4.345527924734015  -0.22496322069028807 
H  3.62050206718187  2.710678916199493  -1.5736822769297172 
H  3.7807055321806633  3.575096892378812  -3.7296337564998416 
H  1.8509676193743114  3.771654532794197  -5.043189302288537 
H  -0.16250535957399093  2.77670342190736  -4.333763435837276 
H  -0.2703149853220872  1.8640011030025951  -2.196238237936173 
Br  -1.654629867976521  1.654629867976521  0.0 
C  -1.35204078  -1.31992066  -0.4819701 
C  -1.63807002  -1.59921746  -1.81393823 
H  -1.15796809  -1.15933936  -2.50351594 
C  -2.63068217  -2.5263265  -2.14228996 
H  -2.83682226  -2.69439953  -3.05388981 
C  -3.31015444  -3.19615732  -1.16198741 
H  -3.99601236  -3.81199015  -1.38686634 
C  -2.99747104  -2.9701089  0.1242356 
H  -3.43865917  -3.46858118  0.80170842 
C  -2.03898543  -2.01594063  0.49125628 
H  -1.86191301  -1.84921651  1.41015686 
