92

Pd  0.0  0.0  0.0 
N  0.28887  -2.03857  0.0 
N  1.84901  0.01246  0.0 
N  0.26212  2.02611  0.0 
N  6.06743  0.03938  -0.10158 
N  6.71065  -1.16388  -0.23862 
C  -0.7518  -3.04066  0.09615 
C  -0.25884  -4.44406  0.37382 
C  1.05657  -4.71195  0.45966 
C  2.05792  -3.64307  0.30628 
C  1.65133  -2.38587  0.10464 
C  2.54143  -1.22873  0.01775 
C  4.01486  -1.17728  0.00065 
C  4.651  0.02406  -0.07888 
C  3.84626  1.27922  -0.17647 
C  2.52046  1.23498  -0.13203 
C  1.64033  2.38915  -0.17883 
C  2.01264  3.81433  -0.37836 
C  1.04415  4.7304  -0.36696 
C  -0.37869  4.3342  -0.15347 
C  -0.7385  3.03788  0.01286 
C  6.83864  1.28256  -0.03987 
C  7.96777  -1.30339  -0.34882 
C  8.55586  -2.61923  -0.55782 
C  7.79637  -3.80813  -0.49529 
C  8.42199  -5.03171  -0.74463 
C  9.7859  -5.0682  -1.05258 
C  10.53126  -3.89111  -1.1009 
C  9.91825  -2.67028  -0.8466 
H  -1.8152  -2.74042  0.08149 
H  -0.97314  -5.24607  0.51478 
H  1.40369  -5.71912  0.66653 
H  3.11191  -3.87976  0.4006 
H  4.54782  -2.11619  0.04892 
H  4.30048  2.24844  -0.28173 
H  3.04855  4.09617  -0.53936 
H  1.31431  5.76826  -0.5215 
H  -1.12847  5.11565  -0.14496 
H  -1.78097  2.77659  0.15154 
H  6.25693  2.18499  0.19403 
H  7.57794  1.21266  0.78749 
H  7.35522  1.43861  -1.01014 
H  8.63457  -0.45002  -0.3607 
H  6.73893  -3.78752  -0.26672 
H  7.84864  -5.94932  -0.70435 
H  10.27187  -6.01296  -1.25592 
H  11.58258  -3.90427  -1.34081 
H  10.49713  -1.75514  -0.89419 
O  -1.91604  0.0  -0.08396 
O  -0.08396  0.0  -1.91604 
O  -4.10195  -0.91163  1.29312 
O  -3.96292  0.11743  -3.06288 
O  -8.66576  -0.02754  0.99778 
O  -2.93034  0.42773  -7.70229 
O  0.76498  0.0685  -4.67229 
C  -4.92058  0.03498  -0.84871 
C  -1.32808  0.02316  -2.38252 
C  -5.0694  -0.40651  0.50193 
C  -3.68721  0.05737  -1.72813 
C  -2.38414  0.02282  -1.35093 
C  -1.61385  0.03088  -3.69798 
C  -7.46157  0.02291  0.3999 
C  -6.33331  -0.3962  1.09264 
H  -6.4385  -0.75654  2.10868 
C  -2.47964  0.24664  -6.44311 
C  -6.09859  0.47605  -1.52469 
H  -6.08434  0.83579  -2.5473 
C  -7.34003  0.4705  -0.90877 
H  -8.20743  0.80514  -1.46365 
C  -3.04269  0.11639  -4.04393 
C  -3.44513  0.21909  -5.31962 
H  -4.51114  0.30067  -5.5267 
C  -0.62307  -0.05633  -4.83613 
C  -1.15864  0.11388  -6.22747 
H  -0.46335  0.14019  -7.05977 
H  -3.24824  -1.2438  1.03817 
H  1.025  -0.41954  -3.85362 
H  -3.86755  0.58935  -7.8808 
H  -9.47242  0.21968  0.52648 
S  0.0  0.0  2.23 
O  1.39659  0.62196  2.29734 
C  -0.08916  0.00626  4.04423 
C  -1.04471  -0.78674  4.68742 
H  -1.74178  -1.37797  4.107 
C  -1.0971  -0.82341  6.08675 
H  -1.83695  -1.43631  6.5834 
C  -0.19338  -0.0775  6.85014 
H  -0.22426  -0.11064  7.92898 
C  0.76282  0.7137  6.22038 
H  1.47536  1.28991  6.79789 
C  0.81334  0.76499  4.83519 
H  1.58117  1.39514  4.40714 
