61

Ni  0.0  0.0  0.0 
P  1.3190811404155547  -1.5297466930835313  6.053886693481465e-16 
N  1.3190811404155545  1.5297466930835313  -6.8694030020042e-16 
C  2.689605408846852  -0.9934474164063555  -1.0925441023027187 
C  3.556775773687738  -1.9902563011023628  -1.517921423904214 
C  4.535559172635331  -1.7772085615821285  -2.4892134544645197 
C  4.584423658294383  -0.5646799590452399  -3.1042327956817117 
C  3.7074812187819486  0.4884346201748574  -2.7501113181968475 
C  3.7307634473696925  1.685662790878276  -3.4972175054996475 
C  2.921140068096689  2.7236841980690505  -3.180766179150302 
C  2.105792559713924  2.6358358761164022  -2.0397757528520915 
C  2.0497147658152115  1.5069309712664458  -1.2679545450343865 
C  2.7973771299317347  0.3225016417623736  -1.6574516986751244 
C  2.295595143296162  1.3693411330588294  1.1132618912418126 
C  0.6463774184259036  2.8197262785417667  0.26960985056610975 
C  1.995591934287825  -1.7212425344044988  1.6853303915052262 
C  3.2786910482970133  -2.2301069944615435  1.9242722357261905 
C  3.7899762914378594  -2.2854266760680577  3.2021097304701063 
C  3.029287118521424  -1.8417341333295858  4.276243776912178 
C  1.7477259886797571  -1.3767995933722816  4.07178115432877 
C  1.2312512686161194  -1.3138790651337255  2.775266495460056 
C  0.9698835031744195  -3.2372685637370324  -0.5301955218456511 
C  0.6584174778640122  -3.498904396525296  -1.8714830920849914 
C  0.2507494310524012  -4.7618831653210405  -2.2624489770161476 
C  0.13699548949092732  -5.778510971762115  -1.3344696917139036 
C  0.42480805789003406  -5.532940396778374  0.0035191715333576347 
C  0.8418594777298445  -4.256723681405226  0.4039765832662079 
H  3.481086862367895  -2.880965881427371  -1.1151049741153929 
H  5.170113377631607  -2.4854376199605164  -2.7246445309816623 
H  5.244594292505231  -0.415041939865356  -3.8135746716072783 
H  4.341922109970323  1.7640809633393606  -4.2595232377069525 
H  2.9024798524148276  3.5253046268265575  -3.7433745727504544 
H  1.563107354091247  3.410918878655867  -1.7839928433904073 
H  2.8705148739462665  0.5824935847410552  1.010836801466267 
H  2.849500018700131  2.1766985704594553  1.1524104196639442 
H  1.776516001725057  1.2890466074649167  1.9408250452944078 
H  -0.0004353013040159226  3.0535169032360425  -0.4277724473169545 
H  0.17779349028210634  2.6966271694857316  1.1216705770609756 
H  1.3033814736037654  3.541486217616667  0.3598826140468512 
H  3.8180559312751234  -2.550590213818456  1.1707683677064817 
H  4.690686894058022  -2.639590056482317  3.35250095461957 
H  3.4035936320746805  -1.8559556904660466  5.181158944883331 
H  1.1986642044626066  -1.0948134959678228  4.833470479436394 
H  0.3230341811580111  -0.976874473242218  2.6300180975578344 
H  0.7300627073431251  -2.7827745791162513  -2.5367429929587684 
H  0.042911871246493316  -4.936120224440112  -3.204202812136277 
H  -0.15043330247103315  -6.6708153618755865  -1.617112372382485 
H  0.34087096828198615  -6.2508326759153565  0.663904249002289 
H  1.0475847772330529  -4.083876293536703  1.3464633373648325 
Br  -1.5839191898578664  1.5839191898578664  0.0 
C  -1.2937473829822488  -1.2398794889499034  -0.4598005675376139 
C  -1.601562203225019  -1.4938654694550033  -1.7919791134336869 
H  -1.1309417375171225  -1.0428217585005106  -2.480879663633267 
C  -2.60218398542082  -2.411889969420291  -2.121542410022959 
H  -2.8231586547736818  -2.5626138747145775  -3.03270050271447 
C  -3.2683208079706407  -3.09759503004543  -1.143064365570095 
H  -3.9596020908062854  -3.707191723557817  -1.3683280760515548 
C  -2.9347449854640226  -2.896087320001541  0.14198826503765638 
H  -3.3668350933519986  -3.405606940434718  0.8171022443470677 
C  -1.9675509241539992  -1.9516175659140573  0.5112421903797603 
H  -1.7755298364628027  -1.8022912010877177  1.4301324877763764 
