98

Pd  0.0  0.0  0.0 
P  1.7252117123703974  1.2311557771054003  1.3032035227449726e-15 
N  1.7252117123703972  -1.2311557771054003  5.551115123125783e-17 
N  4.038560241897103  -0.6022114392730722  -0.25826562071904474 
C  2.723439538213071  -0.37000176254787664  -0.051089244708567794 
C  0.9207283018835914  3.1408327479008853  -4.1211992283151435 
H  1.0160566177021428  3.5947200385196427  -4.972636166448543 
H  -0.002922213262424034  2.857965614857179  -4.028973413522527 
C  2.0453381317984216  2.1599902603327017  -1.57244184577749 
C  3.5123685738668002  2.591505337367926  -1.7624638453880503 
H  3.7776494976433668  3.1785390852005775  -1.0388039319025666 
H  4.088969194790092  1.810328992436831  -1.7472066480378918 
C  2.1335201999549698  1.1610773462484638  2.710220567130132 
H  1.3910686652269861  0.5365392379939669  2.7199883671881326 
H  2.9478146925908355  0.6598588112139874  2.54933890440629 
C  3.294735459172952  2.3617599791769264  -4.242719507165373 
H  3.409013077486254  2.8063990250067348  -5.096915775523078 
H  3.8793696968651257  1.5875465102355393  -4.223668978882833 
C  1.8563627537449188  -2.650415762310676  0.16827798056043314 
C  2.3689179915667777  -3.145448240193305  1.353636569352367 
H  2.6134079387737246  -2.5647695126964227  2.037768151102075 
C  1.123060271429865  3.3991251962762266  -1.6227422314444793 
H  0.1994190077543554  3.128906698189677  -1.5011768197198916 
H  1.357545119384946  4.012080875024095  -0.9096343420124304 
C  0.5976671195366206  2.9378111281772905  1.8675147800831728 
H  0.4277637355240602  3.5887178817354086  1.1679226858786131 
H  -0.1367256932202774  2.3034775210718257  1.8786808656818876 
C  1.9290142199067017  2.1956392625273633  1.5851477137069228 
C  3.6617630136461488  3.3201261599165295  -3.1030439841010033 
H  4.590597261810082  3.6134277280162155  -3.212064484870483 
C  1.2881087143295984  4.094051484979948  -2.9826503440627117 
H  0.702502260021292  4.880303925979645  -3.0168104039935377 
C  0.6929691495132877  3.6503490671719088  3.2284471107211377 
H  -0.1464125066790507  4.126950319354286  3.4001076235539154 
C  1.8409307370920611  1.9185129870838353  -4.0801542462520315 
H  1.6029826152260698  1.30601459003051  -4.806865320137352 
C  2.2252643660987212  1.881522769560695  4.067355096204944 
H  2.377420135152495  1.2225191242969324  4.776423081290109 
C  0.9227733748069598  2.6217830940037627  4.3379807410712266 
H  0.9705640497530403  3.0687351452655034  5.196315113714633 
H  0.18482588151521262  1.9921639187418827  4.3615451482776235 
C  2.735952405473722  4.538735378911861  -3.1615116604275024 
H  2.974920500724722  5.164576790964169  -2.4615105772765644 
H  2.837393245284808  4.986904132420266  -4.017100150530752 
C  3.157382315953938  3.914513501963946  2.9521529622757345 
H  3.898727104047091  4.556609757937837  2.951882349198648 
C  1.659502864792725  1.2072694821727294  -2.732137842837466 
H  2.218031724875253  0.41595011941056814  -2.7023561610078617 
H  0.734932057230794  0.9293691982586911  -2.6310017266137997 
C  2.168698797285891  -5.378729264520263  0.5024936138961993 
H  2.304132481331357  -6.293389842767786  0.6043475967627772 
C  5.016729365055267  0.2923195010676465  0.4263612070296185 
H  4.546286976705458  1.1370507969278338  0.5862561945624114 
C  2.5150580602696806  -4.511661692852108  1.514809309273307 
H  2.851196554922988  -4.848260332688181  2.313309834052549 
C  3.0688659355908  3.2314555367264535  1.5842244822253055 
H  3.909357067872388  2.7924947975171412  1.3843198399860104 
H  2.9057277758632667  3.8964867904683635  0.8971315973929979 
C  1.4445619955304807  -3.517219415304979  -0.8340611899251686 
H  1.0565899597545856  -3.1831294060235726  -1.6098275820525179 
C  1.8429539718209498  4.651256866912107  3.212243873967649 
H  1.888257375670421  5.112675483113238  4.064006946789361 
H  1.6944117769964044  5.311361177116247  2.5167645097830307 
C  1.6151858474152092  -4.881023798327629  -0.671300764709976 
H  1.3587843637597896  -5.464820993910678  -1.3477909816449198 
C  3.3945366662145  2.8601280544521592  4.028683859290703 
H  4.216477926598664  2.378785818140445  3.8393424057720145 
H  3.488114880108053  3.291371500548214  4.891736388447361 
C  6.256813619133876  0.6454049538460438  -0.37472415410401144 
H  6.798704802455116  -0.13970039023361958  -0.48841973069469896 
H  6.759694128501672  1.3173418040673774  0.09321491523369385 
H  5.996911886697812  0.9828083821730824  -1.2348698603828319 
C  4.474965561106569  -1.8128730449915476  -1.0124989094333814 
H  3.6615109613796237  -2.331301420887765  -1.186647964121244 
C  5.048046060371087  -1.4562676233508913  -2.381917641822902 
H  4.512792170637694  -0.7683189366369025  -2.784394197629297 
H  5.043573342781173  -2.235222035809373  -2.943707520789067 
H  5.94829289263129  -1.1404420452796984  -2.2784551112069176 
C  5.433459433861662  -0.22863971622000534  1.8063817879180581 
H  4.6738288283195955  -0.6192560979508999  2.2436240496532243 
H  5.768671253045757  0.4994740299605134  2.3340554928743087 
H  6.11945666922965  -0.893147851757075  1.7032056721134061 
C  5.3941016915320485  -2.725627792113849  -0.22194550494243204 
H  6.232599362881146  -2.283993536635346  -0.07232067568570455 
H  5.5423527497628715  -3.5355343234744487  -0.7155732636765599 
H  4.98824888073449  -2.9360761811951757  0.6235098584569732 
Br  -1.654629867976521  1.654629867976521  0.0 
C  -1.35204078  -1.31992066  -0.4819701 
C  -1.63807002  -1.59921746  -1.81393823 
H  -1.15796809  -1.15933936  -2.50351594 
C  -2.63068217  -2.5263265  -2.14228996 
H  -2.83682226  -2.69439953  -3.05388981 
C  -3.31015444  -3.19615732  -1.16198741 
H  -3.99601236  -3.81199015  -1.38686634 
C  -2.99747104  -2.9701089  0.1242356 
H  -3.43865917  -3.46858118  0.80170842 
C  -2.03898543  -2.01594063  0.49125628 
H  -1.86191301  -1.84921651  1.41015686 
