93

Pd  0.0  0.0  0.0 
N  0.2916071965139442  -2.034110023962768  -1.5064335246925739e-15 
N  1.880821035833836  0.024578731753873317  -5.6720863460091536e-15 
N  0.22757176765221976  2.009531292208895  7.185458764605634e-15 
C  -0.5861238331472671  -3.045548948219712  0.008180590921599317 
H  -1.4909878248255606  -2.855637463449744  0.10816661252707484 
C  -0.19004967418546537  -4.365879322236292  -0.1274861111535067 
H  -0.8209900052034336  -5.049093630497064  -0.11361319932169427 
C  1.1513887863050218  -4.659245409912432  -0.28294174893647367 
H  1.4308257026219025  -5.539168788129492  -0.3952261568762603 
C  2.0802190365986224  -3.6205136172038976  -0.26990491818515616 
H  2.9881562089396114  -3.798702432049574  -0.36309428101881125 
C  1.6333074570270891  -2.320815433213002  -0.11521167148173622 
C  2.5342581240103446  -1.1467505072867212  -0.10545537238088062 
C  3.9094703833130424  -1.147799866729825  -0.2298156582776669 
H  4.368802079309919  -1.9545457011861684  -0.286135118857212 
C  4.616946375097887  0.06451881715989297  -0.2696445390045007 
C  3.884470697252268  1.2618846731459266  -0.20688349787678423 
H  4.322829315499248  2.08049027470521  -0.2458023995103246 
C  2.5055028069523244  1.2154579588151793  -0.08677264192205562 
C  1.5565950457865498  2.3495431622241676  -0.09133687330860725 
C  1.9451135407064304  3.6664090961899216  -0.24609559217669774 
H  2.84800629659237  3.8855531536253274  -0.2898665124256942 
C  0.980577582798402  4.658016801415126  -0.3360510524914886 
H  1.2272647913940162  5.545743199610019  -0.4563613307856892 
C  -0.352158287385562  4.308639825926071  -0.24348070452243112 
H  -1.0121625764677114  4.962060279350353  -0.29298736508415046 
C  -0.6993578919034593  2.9751747473070598  -0.07717132797916251 
H  -1.5992206134397116  2.745365851653071  -0.018830228678034088 
C  6.0875803432474545  0.05445867829736989  -0.44501926731711106 
C  6.841489140745459  -1.0650287323999184  -0.08012475880075608 
H  6.424875842357341  -1.7841702570455578  0.3366398235914164 
C  8.204651800396787  -1.114415514971921  -0.3339083064146653 
H  8.688560715330858  -1.8695795679481146  -0.08767269741406458 
C  8.860237371643944  -0.05293558448340808  -0.9495242873172441 
C  8.112642775895873  1.071050346531256  -1.2905746315325546 
H  8.53536457641498  1.795796814538962  -1.6940602526843391 
C  6.748635328208864  1.131094907641499  -1.0398354376767651 
H  6.270087290816517  1.8956140994973898  -1.2695367680863825 
C  10.339620755995597  -0.11216193316432126  -1.2427479932589238 
H  10.739148790246418  -0.8191904323416946  -0.7307081791832344 
H  10.746824473759597  0.7239640385383513  -1.0068540516592324 
H  10.473368527332118  -0.280771043318693  -2.1779931384671007 
C  -1.8789226722243537  1.27675647831893e-15  -0.12107732777564584 
H  -2.4877408424293534  -0.4518232476686402  0.5159112659170084 
H  -1.7012883186592271  0.9137312077927555  0.2157600756390301 
C  -0.12107732777564562  2.220446049250313e-16  -1.8789226722243542 
C  1.0137175601539559  0.4035884638314677  -2.596990227675111 
H  1.87416791655771  0.18009111421328164  -2.263146897835636 
C  0.9181468769416561  1.1215842160437925  -3.783338968271802 
H  1.707340912482073  1.3665114789827622  -4.251904972306074 
C  -0.31609001392158176  1.4821702048552712  -4.287496336466635 
H  -0.37939641157087733  1.9553221328700017  -5.108971115770663 
C  -1.461458098365447  1.1458111706043228  -3.584607098239765 
H  -2.314465848353845  1.4031055755246054  -3.915406308723261 
C  -1.3640494601353081  0.4319810361026635  -2.394071527046907 
C  -2.536668760280685  0.07571699155540888  -1.499740778671634 
C  -3.1059691161266985  -1.2903433833244518  -1.8985666266513228 
H  -2.3936786334230735  -1.9619104673153183  -1.8720754970062972 
H  -3.473162534082978  -1.2382773078477858  -2.806817460724189 
H  -3.8171690210935525  -1.5432235135959098  -1.2726336391126698 
C  -3.6625888866906076  1.118570661663802  -1.5514479511585653 
H  -4.368702425463625  0.8697230200550484  -0.9177826991309461 
H  -4.034903477908181  1.1530923681454686  -2.457211075241298 
H  -3.304018753097896  1.998343029490739  -1.3113955191702233 
P  0.0  0.0  2.31 
O  1.3543962729476164  -0.5748383849699414  2.9250567591619148 
O  0.010571061374633706  1.5659733987596969  2.571689008249137 
C  -1.1647394956783277  -0.6991813256309657  3.4738339018502264 
C  -2.402016264584309  -0.0848742440578269  3.6432312355207017 
H  -2.566040300146324  0.7413022027305456  3.2455740282050405 
C  -3.384414635200513  -0.6849295514565461  4.387909561694664 
H  -4.205421527525616  -0.2644285459113177  4.5009446318725965 
C  -3.1578484915277905  -1.894782504591221  4.96145526548171 
H  -3.834150037559634  -2.3125719112614984  5.444693033572155 
C  -1.9505634819726505  -2.4994806375556484  4.8342210967502695 
H  -1.7975924853784444  -3.3169952914111875  5.2508989158532735 
C  -0.9498194720086778  -1.9155292086193607  4.093279428894766 
H  -0.12686902395563754  -2.34035539116579  4.008631247152179 
C  2.5889156593156435  -0.4973002019121816  2.2006737079731056 
H  2.8706463924667163  0.42816888612584025  2.1379816743146645 
H  2.458055246300435  -0.8345533649204468  1.3009109468263629 
C  3.6111199677025105  -1.2667438690378137  2.8575871612038837 
H  3.805779875880827  -0.87884525568937  3.7133254657750667 
H  4.406452937058087  -1.2692759188812999  2.3192458228509443 
H  3.305196728928754  -2.169336608759971  2.978634788933738 
C  0.33097876387996794  2.1294643401005264  3.87908054990836 
H  -0.15504279644216457  1.6519639693029586  4.569737308935755 
H  1.2794872323336608  2.03137190878619  4.054616301795182 
C  -0.022082817063051152  3.506845138509174  3.9092367472344858 
H  -0.9503734369109649  3.6038005707017815  3.6825163704027535 
H  0.5147958980822256  3.9882747440643196  3.275491506527327 
H  0.13057822968302446  3.85685705675136  4.789567407779042 
