57

Pd  0.0  0.0  0.0 
P  1.5492020099070374  1.4464000596308062  -2.186634165951429e-15 
N  1.549202009907036  -1.4464000596308066  -2.220446049250313e-16 
N  1.5405300710646057  2.400391976191018  -1.3420021127459243 
N  1.7264615793802716  2.7009041907099727  1.0981765842229096 
C  1.3773995804441495  -2.740755585637813  -0.10011387279379559 
C  2.4306322465769177  -3.6589163608378485  -0.19473010752627018 
C  3.697070093929667  -3.2123206242717974  -0.17929097304391495 
C  3.955822871960769  -1.8197311283102637  -0.10107239725286066 
C  5.252782347430742  -1.2612378541837455  -0.11306538454369774 
C  5.428706218563703  0.09331240800311535  -0.06803052276860866 
C  4.332701966262772  0.9544149824304937  -0.020687357972903664 
C  3.0456193500864197  0.4389187267193879  0.01595768922941132 
C  2.8454863229349394  -0.9493915624218855  -0.020691628740518553 
C  0.5959154624428451  2.28746344102372  -2.4455015450626467 
C  -0.1418684180587788  3.6168309885408245  -2.4569749613071714 
C  0.9375483923403822  4.5931157623125  -2.018656310176178 
C  1.764428279117488  3.8425890579115833  -0.9839109652605418 
C  1.3162007907806734  3.977910875479788  0.45856423882074615 
C  1.5608797590035834  2.5244372939475728  2.502261633323493 
C  0.8389773961671134  3.426972388790703  3.2530504126133994 
C  0.694994041811956  3.2300864663214472  4.635650125907955 
C  1.26550978475041  2.1455628177256365  5.2427028276528596 
C  1.9767521394697225  1.2538900495917642  4.499441603437694 
C  2.1419756547107216  1.4380971527551911  3.1401724089233785 
H  0.4673173292746027  -3.045825892474381  -0.11944296984553682 
H  2.2578134806516013  -4.600595729509656  -0.2655898334777645 
H  4.427278850388365  -3.8342891308477918  -0.21956216397085337 
H  6.014425349248487  -1.8444920751600176  -0.15140207056966637 
H  6.320384234628518  0.44850809648444523  -0.07522764378836722 
H  4.467975273425919  1.904864908677661  -0.011012645269397048 
H  -0.032144824645858217  1.5741162635745134  -2.309907407256807 
H  1.0423793231973497  2.165127121399143  -3.2865494663732653 
H  -0.8724384929900226  3.6415932766515846  -1.8346479293517124 
H  -0.45606308365605863  3.865503648366217  -3.3293181451319924 
H  0.5573256702279581  5.375065896004205  -1.6117028115931842 
H  1.49845354959366  4.854866138689444  -2.7524715423928576 
H  2.69675666293985  4.055463986911927  -1.0682529436716783 
H  1.7569923849111637  4.7320715744764605  0.8568864082172745 
H  0.3656212474148084  4.1078046028403605  0.4934143654595937 
H  0.43422979855662835  4.189804281428783  2.8336736180685085 
H  0.19297738284942034  3.8660216309222992  5.150768617663173 
H  1.1680444088101962  2.00647835858136  6.187588526410872 
H  2.3692326968210304  0.4925523286288094  4.932950884468876 
H  2.6576470113581925  0.8085053403541043  2.630805535549319 
Br  -1.654629867976521  1.654629867976521  0.0 
C  -1.352040782177733  -1.3199206589279684  -0.4819701001757076 
C  -1.6380700204479186  -1.599217458033982  -1.8139382277462257 
H  -1.1579680913617836  -1.159339363685303  -2.503515938957912 
C  -2.63068216563725  -2.52632649780156  -2.142289956238523 
H  -2.8368222554424674  -2.694399528648736  -3.0538898079700485 
C  -3.3101544432602585  -3.1961573187854975  -1.1619874135498987 
H  -3.9960123560788676  -3.811990145619169  -1.3868663427944008 
C  -2.9974710358883443  -2.9701089012107795  0.12423560353005347 
H  -3.438659168087169  -3.468581175155742  0.8017084178296768 
C  -2.0389854250767776  -2.015940632791841  0.4912562833419403 
H  -1.8619130127668426  -1.8492165108145995  1.4101568590026907 
