71

Pd  0.0  0.0  0.0 
N  1.9178342317595212  -0.010176513042852942  4.805184028455755e-16 
C  0.23800950382672825  -2.050055086248992  -5.126107871511464e-15 
C  -0.678899846217492  -3.0940150545013436  0.02500836836010986 
C  -0.2212879210077856  -4.407080255021748  0.009968917300481307 
C  1.0965569425382005  -4.681727641744972  0.0022127203222783525 
C  2.0469604395136085  -3.6777600227077034  0.01578043426209239 
C  1.6081214931776084  -2.3451224582263226  0.01323074568425051 
C  2.541581007243831  -1.191996097351643  0.013864350584250151 
C  3.929419171019364  -1.2027904682363646  -0.00344035182167481 
C  4.612887059030948  0.011475637356888502  -0.00932430154783805 
C  3.9109083546404557  1.2126903901870587  -0.027484317114999005 
C  2.5435999302001377  1.20482565837162  0.006775257430018812 
C  1.6083000395518727  2.3423759394634245  0.0023647539102092745 
C  2.054393486619835  3.6560451999011434  0.023946011149786423 
C  1.1311012175852182  4.696163333648076  0.02300590918465015 
C  -0.21344803305785032  4.421522569141329  0.016133277497168284 
C  -0.6750520707942111  3.1004926469232474  -0.008680971433164614 
C  0.2441562644137506  2.060231599291845  4.643854745189912e-15 
H  -1.6110745783217013  -2.9114055694880725  0.051888748000895345 
H  -0.843275904470284  -5.122150629338209  0.004207129108272569 
H  1.3815876844629036  -5.58780776964255  -0.00932018854594065 
H  2.9740381837102827  -3.8861734572140154  0.022921619912030875 
H  4.404994504800979  -2.026440188249116  -0.016043947396900533 
H  5.562574811162853  0.017814627492752866  -0.004028014668826648 
H  4.380407000664244  2.03622967666424  -0.060783341282149024 
H  2.985742154378551  3.8447499015572966  0.041558354461421726 
H  1.4264499094373018  5.598802710447  0.020155352517284373 
H  -0.8390085890705172  5.136380374877056  0.02989984351145722 
H  -1.6064459214112017  2.918411339159296  -0.031112921767997306 
C  -2.26322393003708  0.021636640429148587  -1.3873509176091152 
C  -3.5732631337717637  -0.052743647306161164  -1.8155281092887483 
H  -3.7865634670017623  -0.028404398029356008  -2.720418582654797 
C  -4.5631723093280705  -0.1653595664085327  -0.8475839482370036 
H  -5.458143127441496  -0.21657909502999423  -1.0940313556350554 
C  -4.205744236175636  -0.19971743082143745  0.46813368092040264 
H  -4.858395750732129  -0.2755486838244195  1.1275281240385748 
C  -2.8717020905543404  -0.1210160480672396  0.8182101240849029 
H  -2.638991033322299  -0.15402183128909108  1.7181807414474188 
C  0.9418779128441236  0.051143906006920606  -2.902118512997168 
C  0.6737398387970416  0.16576691684452405  -4.252684131037572 
H  -0.19682255595857073  0.24710499493016674  -4.56985918347822 
C  1.7545339074840909  0.15522283964719616  -5.113356480731104 
H  1.6182797529562896  0.1992489686442402  -6.032433324819506 
C  3.0288338964294597  0.07882178013557474  -4.612452032478424 
H  3.763947193853244  0.09663258008868914  -5.182045242897727 
C  3.197351017331025  -0.024633758347414304  -3.248999473156962 
H  4.0611944309560695  -0.07299602666157078  -2.908024184110734 
N  -1.9060645079132539  -1.3086753902769033e-14  -0.09393549208673724 
N  -1.2544055944379116  0.08396103190460187  -2.372835486735473 
N  -0.09393549208679397  0.0  -1.906064507913206 
N  2.1633469915772805  -0.057473686916375805  -2.395768892471602 
C  0.0  0.0  1.95 
N  0.04924882316448925  -0.04715868142740083  3.0977982192802624 
C  0.49090707129781963  1.1141135252472187  6.525845206102475 
H  0.8278256826753292  1.863437759382703  7.00235488223164 
C  -1.107465326694744  -2.2712498680283395  4.416837016738267 
H  -1.633566851552784  -1.9508655887638555  3.6556957689122003 
H  -1.681895217609429  -2.7918330306779247  5.016247469758147 
H  -0.3764386025604939  -2.8377987577601336  4.093896783652921 
C  1.162545047478134  2.238329058589544  4.358495644184914 
H  1.4213303516732627  2.95318487890668  4.976575001946803 
H  0.5072196697017344  2.5836849136806035  3.7161883403213025 
H  1.9543080244816187  1.9196514603683001  3.8766636541318267 
C  0.0357074937238826  -0.022677478650585704  4.492563447950515 
C  -0.568138809297923  -1.0586976819311553  6.556118969549433 
H  -0.9323498253540815  -1.7836045005136192  7.051354529819485 
C  -0.5483041171080154  -1.1160822675849047  5.1521907184215205 
C  0.5544989812679919  1.0979906447000802  5.134667154338716 
C  -0.0623256963259049  0.04185507111543803  7.22598710769837 
H  -0.09310669896088464  0.06772054334734974  8.174979919695913 
