48

Pd  0.0  0.0  0.0 
N  0.2159734719346711  -2.0435368955330486  -8.659739592076221e-15 
N  1.8617042936009416  -0.024195836519572522  -2.55351295663786e-15 
N  0.3223222344643871  2.067732732052621  1.1213252548714081e-14 
C  -0.6941949353380086  -3.0333698315408713  -0.05201816218254807 
C  -0.3342552342638152  -4.371798472871788  -0.16224394707743672 
C  1.0102197284451622  -4.69609790815822  -0.22874808921608125 
C  1.9463389854059623  -3.6868564593363304  -0.2074322564372021 
C  1.5404554632006042  -2.3668212921209073  -0.09570466934824459 
C  2.4745775407599355  -1.2200781129904992  -0.06319797259015003 
C  3.860687831161097  -1.2828788600836756  -0.11477644686527133 
C  4.570177826002109  -0.08202830192636568  -0.06599833503445296 
C  3.929687093440256  1.127343368435115  0.01794405252667952 
C  2.5248742567627676  1.1441210315452375  0.04168207954478731 
C  1.655129482357838  2.32537820034995  0.07784184368665004 
C  2.113598893297837  3.6357048228955913  0.1795299525316133 
C  1.20599346151227  4.676915342345144  0.15513068244158823 
C  -0.13376393273165932  4.4090862946845695  -0.013027771993347037 
C  -0.5434000732420354  3.0901329628512433  -0.07730623521030378 
H  -1.616577276367204  -2.808016810583257  -0.014499461475058761 
H  -0.9971132250316304  -5.049873183477915  -0.19086196433358726 
H  1.282380119683913  -5.6036933418853625  -0.28912540381692686 
H  2.871454885652091  -3.896105267883324  -0.26846099748155755 
H  4.31146410250221  -2.1169236173594346  -0.1809877454224279 
H  5.519028724844056  -0.1030520310287093  -0.09256870540183526 
H  4.425821806688039  1.9365555336687956  0.059159558690740854 
H  3.0439685752599726  3.8120093690057963  0.2664530904555974 
H  1.5053436150285708  5.573314188794596  0.252073468010498 
H  -0.7631888526180013  5.1182438409988995  -0.08161534179657026 
H  -1.4691044213867863  2.901617842629959  -0.17833350516182478 
N  -4.61561089854278  0.43121953169334243  0.43741169148740977 
N  -0.9361325217388607  -0.23710135171373778  -2.7893205272494086 
O  -1.9479795923436327  -1.700029006457271e-15  -0.05202040765636706 
O  -4.348537402027203  1.3426870577190644  1.061982293148651 
O  -5.269419579455603  -0.48591203076877115  0.90534842428231 
O  -0.05202040765636751  3.3306690738754696e-16  -1.9479795923436327 
O  -0.6655615751859203  -0.6271623836735973  -3.9058526424292106 
C  -2.7079582232147303  0.08500910698990181  -1.0797690697075941 
C  -4.118163452614889  0.25420518071045467  -0.9269960694425434 
C  -5.012293690353552  0.32005746493095305  -1.9755351743997005 
H  -5.920108086118958  0.43755628009063074  -1.8100160477793579 
C  -4.555203697521845  0.20977974735837357  -3.2638072161129865 
H  -5.1503710804965515  0.2626763779004673  -3.9767651200037815 
C  -3.2104161499836548  0.01964130781407463  -3.4996704938689347 
H  -2.898690019788915  -0.06802762212096645  -4.371021008000784 
C  -2.3224056424926736  -0.04120413120610316  -2.438651789445638 
O  0.0  0.0  1.83 
H  2.7755575615628914e-17  0.0  2.64986096992112 
