28

Fe  0.0  0.0  0.0 
O  1.216498687833242  1.3677101090874486  6.421181783466062e-16 
N  2.476291166121495  1.3051451076069127  -0.4329019660825415 
C  3.0602470708043565  2.4712632048579035  -0.7756933963280419 
H  2.5709666348551403  3.2598051720731527  -0.7155011132873801 
C  4.346448631035971  2.519770051856545  -1.2081211616855239 
H  4.73465321797848  3.3303783508181746  -1.4474057084730982 
C  5.072626061877672  1.3370579886406886  -1.2866199798921407 
H  5.955353118356461  1.3450932220772036  -1.5802496425352253 
C  4.47933307668361  0.1722949263402227  -0.9302531009317658 
H  4.966932352911487  -0.6184506438022667  -0.9787707175476259 
C  3.1627891260437138  0.1291498295774507  -0.49785662007317605 
C  2.5228716785624217  -1.1157984483409455  -0.06622759450022805 
N  3.2584031124820094  -2.177053622486328  0.3251129925411088 
H  4.059653306179575  -2.2468539400870338  0.2519757738185697 
C  2.395452121757538  -3.192517382512686  0.6774539065445775 
C  2.6119436690481477  -4.469509709611388  1.1861736098024396 
H  3.468795094909454  -4.80069339904264  1.3292249567173302 
C  1.5024589865168043  -5.207654670515124  1.4638980882352608 
H  1.606659765320742  -6.07391069372351  1.7858099705133985 
C  0.20842691863978025  -4.703476383450997  1.279597675433163 
H  -0.5237592601630374  -5.234424148021164  1.4966248646701157 
C  0.002819899104570256  -3.4426238909951263  0.7842918751585555 
H  -0.8582184621945692  -3.114960739262622  0.6564360995047631 
C  1.1153549388032202  -2.663401607033885  0.4762398704240092 
N  1.216498687833242  -1.3677101090874486  2.220446049250313e-16 
Cl  -1.5202795795510768  1.5202795795510768  0.0 
Cl  -1.5202795795510768  -1.5202795795510768  0.0 
