62

Ni  0.0  0.0  0.0 
P  1.381767907428741  1.473369420749596  -3.773297170634875e-15 
N  1.3817679074287406  -1.473369420749596  -3.3306690738754696e-16 
C  2.9061529638554635  0.44535836753430225  -0.2236402562378022 
H  3.401301963184756  0.7723879998955194  -1.0287093638434226 
C  3.7103138432909817  0.7892669099976084  1.0237668041904637 
C  4.604575592141968  0.015007858646035155  1.6333574996101032 
H  4.799182126356452  -0.836298522724269  1.2556579339772744 
C  5.327218256755858  0.42488171749995374  2.90290519430615 
H  5.285963084895959  -0.31804105162003227  3.555824500130307 
H  6.280074123714861  0.5917655326092048  2.6939141441236143 
C  4.739248157149268  1.6472661410097782  3.516455903807154 
H  5.407643309105559  2.04135562856314  4.1315440573601725 
H  3.955637465786352  1.3805914466211155  4.059210269754113 
C  4.308118050332112  2.7017215532916383  2.5379508938529804 
H  3.8580330391017017  3.4387048072589694  3.023097331578179 
H  5.1030875807322555  3.076137366617899  2.0817444225413047 
C  3.3730673870580157  2.117717488946233  1.527457351103323 
C  2.2131973905821134  2.634198738850854  1.0912552766332508 
C  1.5941365232550628  3.934160929613271  1.4769030370733538 
C  0.512145516697413  3.9740846983379363  2.3219475118906314 
H  0.15576896324126444  3.1660319566200537  2.6724150834988016 
C  -0.06670448853461197  5.194015595970889  2.6692493639492576 
H  -0.8210399669067812  5.212845652852269  3.246333001758279 
C  0.44807284337490394  6.364508871935992  2.1804517069656995 
H  0.058099225730749104  7.1958904472212994  2.4272580152676984 
C  1.5071424559287256  6.337355023460135  1.353953089738734 
H  1.8489782375250234  7.152003857008846  1.007362053475282 
C  2.1140197769006006  5.129705763918184  0.9946657907455925 
H  2.8739751893867167  5.127136577978331  0.4266082493673614 
C  2.5912605250249814  -1.0074124989270152  -0.4075387650099659 
C  3.542841120479279  -1.8657038019707746  -0.9259928029673548 
H  4.376360300940721  -1.5233489024484448  -1.2272494685798647 
C  3.286460975320265  -3.216402168567472  -1.0087870276527768 
H  3.933693635330871  -3.809776516974409  -1.370570355721187 
C  2.08413697941061  -3.688285642059324  -0.5602711123218592 
H  1.8909844115340315  -4.619449687327758  -0.5826580800042888 
C  1.1562634979453426  -2.791546968517553  -0.07606999319046365 
H  0.31715035658295276  -3.1235005933940427  0.21649120882427442 
C  1.0435170986496551  2.297820887498508  -1.5662376030908969 
C  2.00285215920569  3.100689925867835  -2.1680780211552615 
H  2.8337388909202477  3.2522442997100685  -1.7315986163375587 
C  1.7574515807353523  3.679441675423061  -3.3946639001189824 
H  2.4194687574832274  4.2217398653729346  -3.804599005797783 
C  0.5495187791923772  3.4703317905150035  -4.025659639399654 
H  0.3889491037210384  3.8452093006773858  -4.882858969598591 
C  -0.41979710953209715  2.7169987198209586  -3.407111708787149 
H  -1.2677967115298796  2.6118070633244157  -3.8253988594566293 
C  -0.17846562461308957  2.105286343205009  -2.1858286160188545 
H  -0.8452230509311414  1.5622692636235973  -1.7790986985888435 
Br  -1.5839191898578664  1.5839191898578664  0.0 
C  -1.2937473829822488  -1.2398794889499034  -0.459800567 
C  -1.601562203225019  -1.4938654694550033  -1.7919791134 
H  -1.1309417375171225  -1.0428217585005106  -2.480879663 
C  -2.60218398542082  -2.411889969420291  -2.121542410022 
H  -2.8231586547736818  -2.5626138747145775  -3.032700502 
C  -3.2683208079706407  -3.09759503004543  -1.14306436557 
H  -3.9596020908062854  -3.707191723557817  -1.368328076 
C  -2.9347449854640226  -2.896087320001541  0.14198826503 
H  -3.3668350933519986  -3.405606940434718  0.81710224434 
C  -1.9675509241539992  -1.9516175659140573  0.5112421903 
H  -1.7755298364628027  -1.8022912010877177  1.4301324877 
