129

Pd  0.0  0.0  0.0 
O  0.01952  1.91264  0.0 
N  0.33415  -1.94197  0.0 
N  2.04633  0.02934  0.0 
C  2.64444  -1.27005  0.02331 
C  3.50481  -4.05612  -0.01936 
H  3.85642  -5.08181  -0.01559 
C  2.05549  -3.76386  -0.08752 
C  1.60868  5.2109  -0.00726 
H  1.24532  6.22738  0.03808 
C  4.39081  -3.03498  0.07303 
H  5.45065  -3.25631  0.14022 
C  -0.68732  -2.93626  -0.03973 
H  -1.73129  -2.64696  -0.02093 
C  1.00132  2.80661  -0.02909 
C  2.92822  4.96343  -0.04992 
C  3.95977  -1.59721  0.08802 
H  4.74863  -0.86125  0.15194 
C  0.6281  4.10449  0.00446 
H  -0.42539  4.36036  0.04495 
C  1.68644  -2.34077  -0.04913 
C  5.23159  5.79083  -0.03597 
H  5.94763  6.60193  -0.00566 
C  3.43858  3.55541  -0.12246 
C  -0.35561  -4.24614  -0.10527 
H  -1.13702  -4.99858  -0.12373 
C  3.91535  6.06005  -0.01669 
H  3.58244  7.09034  0.03127 
C  1.07399  -4.68224  -0.13274 
H  1.31403  -5.74049  -0.13475 
C  2.86026  1.17768  -0.09235 
H  3.90837  1.0086  -0.12648 
C  2.4274  2.43909  -0.09163 
C  5.75108  4.40736  -0.09498 
H  6.81961  4.23757  -0.11088 
C  4.93689  3.35734  -0.13525 
H  5.40671  2.38105  -0.17978 
C  -1.35898  0.0648  -2.33062 
C  -1.70435  0.06175  -3.7698 
H  -0.90262  0.03699  -4.5018 
C  -2.98139  0.06865  -4.18317 
H  -3.19378  0.04731  -5.24443 
C  -4.10789  0.10305  -3.1868 
C  -3.76516  0.08858  -1.72816 
C  -2.33389  0.09368  -1.38991 
C  -4.66286  0.03959  -0.73763 
H  -5.73165  0.04823  -0.92949 
C  -4.23092  -0.07586  0.68332 
H  -4.97384  -0.10285  1.47285 
C  -2.9252  -0.1601  0.98885 
H  -2.66261  -0.22537  2.03147 
N  -1.95351  0.0  -0.04649 
O  -6.66241  -1.19334  -3.00004 
O  -6.45848  1.64173  -3.31941 
O  -5.82266  -0.11395  -5.44538 
O  -0.04649  0.0  -1.95351 
H  0.66969  -0.00317  -2.60406 
S  -5.82327  0.10733  -3.74483 
Sn  0.0  0.0  2.6 
Cl  1.90774  1.35473  2.82865 
P  1.16451  -2.17546  4.35827 
P  -1.60496  1.93457  4.31818 
O  1.22676  -1.70427  2.66089 
O  0.54735  -3.8112  4.32123 
O  2.69101  -2.0599  5.22452 
O  -1.14024  1.77659  2.61546 
O  -3.34982  1.86807  4.34131 
O  -0.93849  3.36643  5.08263 
C  -0.45158  -0.28382  4.78317 
C  0.09154  -1.34368  5.47085 
C  -0.1646  -1.57022  6.80984 
H  0.31964  -2.41545  7.26897 
C  -1.00546  -0.65927  7.51268 
C  -1.5109  0.48188  6.81283 
H  -2.10289  1.24771  7.28475 
C  -1.21513  0.63537  5.46421 
C  -1.2484  -0.82062  9.01513 
C  -2.66515  -0.34241  9.41414 
H  -2.83643  -0.49394  10.50041 
H  -3.44013  -0.90515  8.84905 
H  -2.80971  0.74112  9.23297 
C  -0.18497  0.02757  9.72548 
H  -0.30315  -0.02932  10.82585 
H  -0.25542  1.08994  9.40596 
H  0.8304  -0.34294  9.4562 
C  -1.11174  -2.28956  9.48815 
H  -1.30081  -2.36114  10.57989 
H  -0.09032  -2.69088  9.33373 
H  -1.8424  -2.94048  8.95974 
C  1.66947  -4.7133  4.29412 
H  2.43404  -4.56831  5.10342 
C  1.14599  -6.13936  4.45266 
H  0.8654  -6.33096  5.50855 
H  1.91377  -6.89501  4.1615 
H  0.2609  -6.26175  3.79895 
C  2.36692  -4.61077  2.94973 
H  2.92587  -3.65629  2.85037 
H  3.08478  -5.43404  2.75115 
H  1.54362  -4.64526  2.23653 
C  3.50851  -0.99577  4.87345 
H  3.26938  -0.59681  3.87657 
C  3.37489  0.06313  5.96248 
H  2.32613  0.42347  6.00375 
H  4.05052  0.91657  5.75918 
H  3.62629  -0.37764  6.95535 
C  4.94398  -1.52736  4.8087 
H  5.01906  -2.30468  4.01805 
H  5.24124  -1.99466  5.77584 
H  5.65234  -0.7079  4.57204 
C  -3.9153  3.03295  3.73606 
H  -3.40947  3.23817  2.76962 
C  -5.35348  2.6517  3.44653 
H  -5.34634  1.68488  2.91121 
H  -5.86204  3.41716  2.82728 
H  -5.90509  2.51544  4.40466 
C  -3.93593  4.36411  4.56532 
H  -2.93186  4.78219  4.77461 
H  -4.49627  4.28434  5.52317 
H  -4.45797  5.15683  3.97109 
C  0.44405  3.39164  5.22472 
H  0.91673  2.43306  4.95464 
C  0.78176  3.68462  6.69533 
H  0.43692  2.84791  7.3354 
H  0.29645  4.61833  7.03999 
H  1.88492  3.78798  6.81239 
C  0.93281  4.51767  4.31886 
H  0.59538  4.31698  3.279 
H  2.03029  4.59802  4.35116 
H  0.47593  5.48702  4.64083 
