53

Fe  0.0  0.0  0.0 
O  1.18491  1.34167  0.0 
O  1.18491  -1.34167  0.0 
O  2.28556  4.33282  -1.01446 
C  2.50036  1.21629  -0.20838 
C  3.11634  -0.1038  -0.51404 
C  4.58199  -0.12725  -0.83509 
H  5.04895  -1.04082  -0.41284 
C  5.35623  1.14408  -0.57408 
C  4.69145  2.30069  -0.38284 
H  5.22261  3.23821  -0.25509 
C  3.2315  2.34391  -0.24442 
C  6.88832  1.12215  -0.54152 
C  7.45842  -0.3092  -0.70338 
H  8.56692  -0.29549  -0.71626 
H  7.10446  -0.77571  -1.64772 
H  7.15703  -0.95427  0.15383 
C  7.37708  1.65557  0.82646 
H  8.48549  1.63959  0.88084 
H  6.97739  1.0259  1.65384 
H  7.04387  2.69877  1.00723 
C  7.4209  1.99842  -1.68252 
H  7.09532  3.05258  -1.56357 
H  7.03619  1.61977  -2.6543 
H  8.5292  1.9809  -1.69773 
C  2.40148  -1.26243  -0.55342 
C  2.8246  -2.50092  -1.27971 
C  3.75916  -2.46294  -2.34111 
H  4.27544  -1.57045  -2.64683 
C  4.00785  -3.58175  -3.12382 
H  4.71292  -3.50276  -3.94039 
C  3.3111  -4.7579  -2.89051 
H  3.48652  -5.61262  -3.52578 
C  2.3695  -4.82248  -1.86147 
H  1.80577  -5.73013  -1.70299 
C  2.12414  -3.70405  -1.06044 
H  1.3572  -3.77377  -0.29931 
C  2.59188  3.661  -0.03919 
C  2.36878  4.17972  1.33511 
C  2.78699  3.41942  2.44642 
H  3.23824  2.44945  2.32036 
C  2.61958  3.89501  3.73028 
H  2.93052  3.31201  4.57538 
C  2.01241  5.15076  3.93357 
H  1.88433  5.53223  4.9416 
C  1.59748  5.9191  2.83857 
H  1.13955  6.88489  3.00382 
C  1.7708  5.4359  1.53949 
H  1.44182  6.04192  0.70504 
O  -1.42957  1.07723  0.0 
O  -1.42957  -1.07723  0.0 
O  -3.2919  0.00027  -0.52704 
N  -2.23383  -1e-05  0.31147 
