61

Pd  0.0  0.0  0.0 
O  0.1038804157315586  -1.9132463606708243  -1.0935696792557792e-14 
N  2.2047698944672374  -0.01953251530301703  1.6653345369377348e-15 
N  0.09134968980120428  1.9327788759738411  9.159339953157541e-15 
C  0.42441971114241195  -3.9272548248214507  -1.125813357722838 
C  0.9520040948713667  -2.5887728808473427  -0.704096552626539 
C  2.232932040377037  -2.1739596987025713  -1.0176395358705423 
C  2.815013290987628  -0.9549555601049895  -0.6485070965353119 
C  4.260781195326965  -0.7833639165868282  -1.0233871902412575 
C  2.960691669498525  1.126458760727423  0.431278106673262 
C  2.14158101405215  2.117608169355742  1.2409086668116158 
C  1.0447857683153092  2.7585475568269846  0.4188109715727529 
C  1.0070338660386813  4.110980861658103  0.07848712601080071 
C  -0.029076552901696306  4.6001388620741315  -0.6526120398977564 
C  -1.029941496780737  3.741332166570847  -1.0565888509559347 
C  -0.940063910786858  2.4206937708036325  -0.7080129235580301 
H  -0.2610393849683459  -3.9544323506145496  -1.8126799092820096 
H  -0.16956695490637785  -4.572272938712666  -0.4907138196121074 
H  1.0418057132253504  -4.454898475174893  -1.4663996062322868 
H  2.7925966132293807  -2.8266452434325453  -1.4472573027221265 
H  4.432630597105481  -1.4237030539330922  -1.4697900489809919 
H  4.327287496499832  -0.075765699002879  -1.5506816946468343 
H  4.821015245773327  -0.718362153998009  -0.21830526299359482 
H  3.2545629631205664  1.567595637436883  -0.2553472925015207 
H  3.728416069705025  0.8568250110394752  1.0350968016113913 
H  2.8700674614820594  2.78903815879325  1.5522022825426478 
H  1.5419273933807918  1.3860869150572939  2.073963508779031 
H  1.7327624247196467  4.648021993367006  0.3594342597702827 
H  -0.03223876488205346  5.546988573431028  -0.9241687273844594 
H  -1.7578755704471385  4.039576644193735  -1.620275063278793 
H  -1.5612137287229284  1.825221178395931  -0.8847700319560756 
N  -1.9683835900613742  4.0592529337857286e-15  -0.031616409938626466 
N  -4.175066996385599  0.04792019684043605  -0.3087719781449296 
N  -4.262557485193128  0.2406036658973553  -2.757854364493027 
N  -1.8268945824905494  0.20083547204367588  -3.6023204237020674 
N  -0.03161640993870618  9.159339953157541e-16  -1.9683835900612934 
H  0.4386478262914198  0.7016454997672423  -2.3330302283006867 
H  0.33198066497557255  -0.7823229504851377  -2.2921548646642473 
C  -3.162763559517353  -0.0006110303762741631  0.5795216229181088 
H  -3.2804401338420335  -0.03168144210793057  1.5213227395929891 
C  -3.608878851721131  0.12540707997216838  -1.539161716310814 
C  -2.267031743868505  0.09715154952977272  -1.3418138403481548 
C  -1.2939079850908348  0.07964890672223768  -2.34762607312185 
C  -3.363487089381549  0.30055717617617994  -3.6838506603713874 
H  -3.706659705204827  0.4286275971067153  -4.560214844390607 
C  -5.594392664690584  0.05461734736494607  -0.002989742778974014 
H  -6.108176494940743  0.10092711471823924  -0.8361348449197696 
H  -5.804919543320485  0.8321585679127752  0.5549085487790109 
H  -5.828365938856233  -0.7655468235659426  0.47953223568153414 
N  -0.003521410907220135  0.07015346038041614  7.345353192485353 
C  4.9649643595096456e-17  6.184625958775049e-17  1.9499999999999997 
C  1.0830758681655566  -0.5177912926914938  2.6629890609331244 
C  1.0806631562961952  -0.5413571385671461  4.05682946418222 
C  0.006308467432196541  -0.021275724808437535  4.756835582425972 
C  -1.0875253923377255  0.5240266223691061  4.05825407151726 
C  -1.0840647548927964  0.5039384166304913  2.6794830288931855 
C  0.011623860693538768  0.014903327939998823  6.196572319727865 
H  1.8335632342917116  -0.8600172581649645  2.191904385061814 
H  1.8174021704704884  -0.9146856910170065  4.527317802952889 
H  -1.8184817059881366  0.9017037317822203  4.532273774230088 
H  -1.8390434932238093  0.8404015461468173  2.2111931110600196 
