67

Fe  0.0  0.0  0.0 
S  1.2856110910769245  1.5320914210646825  0.0 
O  1.2856110910769245  -1.5320914210646825  0.0 
O  6.720464271803133  -6.22316894501915  -0.6839029669477282 
O  4.8687264586731  -7.342358117691639  -0.7305388672508009 
N  3.274625528275532  -0.3484993650894257  -0.4091993079757903 
N  3.722288278796167  1.7964289824084867  -0.9439792775858815 
N  5.501096783695452  -6.29653973311604  -0.6187527835248081 
C  2.8234488107207696  0.924822160100184  -0.4814414219074862 
C  2.5412971721147843  -1.413376906056428  -0.16916790420817576 
C  3.323813680646568  -2.7024138054521463  -0.17276871960325352 
C  4.716940469762964  -2.687030275020508  -0.19882320938324827 
H  5.186257877501097  -1.9200631059311966  -0.1175866884514194 
C  5.441775094379194  -3.860408139606894  -0.30635326962753906 
H  6.311367138413896  -3.8833138125435736  -0.3228973652177711 
C  4.738931770212257  -5.049308047899702  -0.4086919218333579 
C  3.3635677273291504  -5.10763066740625  -0.34836952468118115 
H  2.8878088131505812  -5.889217988852025  -0.3854602854558635 
C  2.658915277430348  -3.920097022230133  -0.22234882627671734 
H  1.7556836574203882  -3.971105587336315  -0.22121882627291528 
C  5.082583570925593  1.3668230065832288  -1.2710447507648912 
H  5.3229583028379555  0.7028034539556001  -0.5849970250298135 
H  5.642427370850756  2.1512114989911266  -1.1649617046952299 
C  5.207287646194989  0.8637698144542583  -2.6654054320450404 
H  4.630171546788892  0.1312836947812337  -2.8756490818722265 
H  6.048953743851058  0.6683006662803939  -2.824907978007841 
H  4.753559665951632  1.5119191685639017  -3.3600338468910875 
C  3.426698803928851  3.1961233841366607  -1.2719148720529554 
H  3.896507940222899  3.3886826308916516  -2.064332439970156 
H  2.5317089840395264  3.2279181251881766  -1.5635969879530671 
C  3.7940279707204967  4.159093713266721  -0.18764662183102054 
H  4.7207363642628  4.093086294512478  -0.016381260453815494 
H  3.726488574556269  5.027533211528116  -0.4514037218781546 
H  3.254569509185033  3.99073890006585  0.6569661267999201 
S  -1.2856110910769247  1.532091421064682  -2.92086356288683e-15 
O  -1.2856110910769243  -1.532091421064682  2.220446049250313e-16 
O  -6.6829409120777  -6.223168945019151  -0.9349776294573666 
O  -4.925750252257731  -7.3423581176916395  -0.348983755074535 
N  -3.307353356293344  -0.3484993650894257  -0.1902122973678614 
N  -3.8918099050502137  1.7964289824084863  0.19031640945345796 
N  -5.497805913743268  -6.296539733116039  -0.640772508535055 
C  -2.897012465518914  0.924822160100184  0.01078448580853985 
C  -2.5358895709077336  -1.4133769060564285  -0.20535100875907406 
C  -3.2852666061717235  -2.7024138054521467  -0.43069321744453815 
C  -4.625137975855912  -2.6870302750205086  -0.8130880391826112 
H  -5.0501971848215375  -1.920063105931197  -1.0279900410640588 
C  -5.349739521685667  -3.8604081396068937  -0.9221776660031206 
H  -6.186171554574487  -3.883313812543574  -1.1606005770348276 
C  -4.70752803429238  -5.049308047899701  -0.6188192253401616 
C  -3.374624296814374  -5.107630667406249  -0.27438829079579247 
H  -2.9304980734507504  -5.8892179888520255  -0.09981977508924819 
C  -2.663916921252274  -3.9200970222301335  -0.18888204601579725 
H  -1.7998218472731031  -3.9711055873363152  0.07411669810811977 
C  -5.288291452376995  1.3668230065832283  0.10537882347964152 
H  -5.317582008623811  0.7028034539555987  -0.6209706495999263 
H  -5.7926570598202956  2.1512114989911257  -0.15975138416638596 
C  -5.815218162029354  0.8637698144542578  1.4023526314433394 
H  -5.32478858573156  0.13128369478123325  1.7721420514903998 
H  -6.666741485421437  0.6683006662803934  1.3088063229567353 
H  -5.5844056304065095  1.5119191685639009  2.1992863112518393 
C  -3.7050153732155717  3.196123384136661  0.590344776756938 
H  -4.3859765598326605  3.388682630891652  1.210778567592206 
H  -2.934411949379754  3.227918125188176  1.1309514707721102 
C  -3.7392846457282447  4.159093713266721  -0.5539427623592771 
H  -4.575427144197807  4.093086294512478  -0.9886679547768639 
H  -3.751811512935028  5.027533211528116  -0.28196398477270357 
H  -2.9764570841695805  3.990738900065849  -1.2039275607958346 
