79

Pd  0.0  0.0  0.0 
P  1.425153796963682  1.56876915287113  4.323401093638509e-17 
N  1.425153796963682  -1.5687691528711292  -5.551115123125783e-17 
C  2.703378670864195  -1.477928942417484  0.19178276227750965 
H  3.168568734160907  -2.299706797776617  0.2954462151012992 
C  3.5129125403000323  -0.27324353568240634  0.2679207622236988 
C  3.1301445523844453  1.0215183203131506  0.23581914721748687 
C  4.35095253663522  1.9212830291083614  0.2850599270273891 
H  4.537399706775479  2.3127984530800205  -0.604876332228856 
H  4.2232074442262135  2.6543211137082223  0.9380997480885518 
C  5.46517302699297  1.010770081817295  0.713544327772953 
H  5.628414103537464  1.0995843664078633  1.6859751395952014 
H  6.299752473322133  1.2364872654780892  0.23133694420740109 
C  5.023789803493051  -0.41484674071320216  0.3755998126068237 
H  5.417880395485653  -0.7196956976962874  -0.4797734852750222 
H  5.274954362361107  -1.0483817564808446  1.0936532285620126 
C  0.9819313450847345  2.5953181177412277  1.4712483817746795 
H  0.031328663590489025  2.8774423481864706  1.3414660619786167 
C  0.9992682166976327  1.6958909187695839  2.7129903020756405 
H  0.41971216381256893  0.9081883541580833  2.556760147275888 
H  1.9206647381521351  1.3714885080843668  2.871927478951248 
C  0.5051751806088471  2.454699292724007  3.948792172646002 
H  -0.45276340028592976  2.67726108223969  3.8353009611762094 
H  0.591320431764704  1.8737499648181006  4.745689634123306 
C  1.2951560512854532  3.732744861972082  4.170790814286887 
H  2.2333447313265165  3.505022676495537  4.389454178581433 
H  0.912697997711261  4.225949453982285  4.939137284101312 
C  1.2658216457879887  4.6220010488666485  2.9335444133125907 
H  1.8220904423774391  5.425160451060416  3.093827945244827 
H  0.33703026315191265  4.9219273822847125  2.7671361140502575 
C  1.787022530380252  3.883160431125859  1.7030588630208858 
H  2.742568397821134  3.6584408225366656  1.831099257944524 
H  1.7123443945894878  4.468597353645107  0.9082124402535543 
C  1.611865122315076  2.7217379256760243  -1.4262123614393272 
H  2.3200221742118323  3.3838218614157545  -1.1809721895989442 
C  2.0937667503446864  1.9860389365113575  -2.6843567006327858 
H  2.937823926066927  1.5083264900188795  -2.4856287142343354 
H  1.4175493193495257  1.3157317003731017  -2.955414268686158 
C  2.3229649513063704  2.975735608681671  -3.8312875973179126 
H  3.0660989647840444  3.5855841407292623  -3.5946447948244087 
H  2.5838219211519124  2.4782009404537093  -4.646515053427096 
C  1.0653989715246825  3.7980588502108703  -4.120408995586305 
H  1.2651799914321533  4.466591468971609  -4.822714307923924 
H  0.35394774137349105  3.2000230504356364  -4.461350602468692 
C  0.5675836616474889  4.51309881192036  -2.8702833417377076 
H  -0.2773201225977002  4.986487339888825  -3.0750608721360484 
H  1.2357827217927915  5.186420953082306  -2.5868525737501167 
C  0.33147591628584583  3.5165341694178376  -1.730464349136649 
H  -0.39319898446287116  2.891167028430593  -1.983406965550519 
H  0.045395395547646045  4.005363324807915  -0.9184410351272592 
C  0.9246550589235931  -2.9436438475019857  0.03001261874605704 
C  0.7002931508900807  -3.522790427696525  1.2783942041888137 
C  0.16316191537874447  -4.816037787441533  1.3110389947476948 
H  0.0016503156467355673  -5.237526490090901  2.1468606543683224 
C  -0.13319730177916367  -5.481703987015119  0.14286279008041863 
H  -0.4961748037789082  -6.358605739884435  0.18169407716645086 
C  0.09073152023393605  -4.891941115717763  -1.0790518952847088 
H  -0.12573755477651982  -5.362774181658776  -1.875183243480917 
C  0.6375388065182269  -3.597343394770074  -1.1619815798582105 
C  0.9932038828405896  -2.774959695014867  2.553668856318724 
H  0.6893471206251199  -3.3047042488767504  3.320265481480629 
H  0.5226344954445907  -1.9153542058758433  2.543758019430972 
H  1.9578362483939102  -2.618484575937762  2.6266525972260752 
C  0.9076450416576504  -2.9564207496760977  -2.491678750173536 
H  0.4421080827395234  -3.454413152554621  -3.195188612617948 
H  1.871866684647107  -2.9652106853876488  -2.6685038621370967 
H  0.5867641264395158  -2.0304261714799687  -2.4792703094918376 
Br  -1.654629867976521  1.654629867976521  0.0 
C  -1.35204078  -1.31992066  -0.4819701 
C  -1.63807002  -1.59921746  -1.81393823 
H  -1.15796809  -1.15933936  -2.50351594 
C  -2.63068217  -2.5263265  -2.14228996 
H  -2.83682226  -2.69439953  -3.05388981 
C  -3.31015444  -3.19615732  -1.16198741 
H  -3.99601236  -3.81199015  -1.38686634 
C  -2.99747104  -2.9701089  0.1242356 
H  -3.43865917  -3.46858118  0.80170842 
C  -2.03898543  -2.01594063  0.49125628 
H  -1.86191301  -1.84921651  1.41015686 
