76

Ni  0.0  0.0  0.0 
C  2.557506193149729  -0.32301282612470494  -0.027599480467512094 
C  3.5199213658648087  -2.308472604503092  -0.03412357193524495 
H  4.171294520185366  -3.0007420385814925  -0.045099202726564015 
C  2.1689043204220995  -2.4729961354273087  -0.00537012526310753 
H  1.7088174884910625  -3.304016018546009  0.008152853145897181 
C  5.090807542203665  -0.3555509704444768  0.01560380697608084 
C  5.702746505281874  -0.21546947941303946  1.262624444871552 
C  6.935922668845375  0.4322638202558468  1.309890311190638 
H  7.379833000338476  0.5443454430229584  2.141882701439252 
C  7.51743609756344  0.9133020671900387  0.14793170727778493 
H  8.33451020620908  1.3955698813267365  0.1971036141839439 
C  6.921392332596323  0.6987869941317778  -1.0798627884235903 
H  7.351394870931371  1.0122579337001765  -1.8665401410094635 
C  5.700266237784641  0.03247801625824461  -1.1895172756788066 
C  5.105165812129054  -0.7997217680465024  2.535628285556118 
H  4.127704201589463  -0.9452969222419562  2.38025472151641 
C  5.744200735631042  -2.1533393259323916  2.8280556329910778 
H  5.580661348772255  -2.760805940014832  2.0761182474854403 
H  5.352540886567063  -2.529967873476815  3.6429892191229682 
H  6.709121931048282  -2.0389803203613277  2.9522925617979814 
C  5.259112698014405  0.1280968025408633  3.7322585402294 
H  4.931351104180233  1.0211216924462585  3.4977537138041286 
H  6.205303975525604  0.1831082010501795  3.9832042363386146 
H  4.741521855256972  -0.22235558740826356  4.486912912689162 
C  5.113176708272951  -0.3300947586316608  -2.5353122739034357 
H  4.116750398982193  -0.3241673002114183  -2.448328336363528 
C  5.494913130330984  0.653501116746551  -3.638505601481762 
H  5.38605836237399  1.5701548264447438  -3.3101398206982355 
H  4.916096683420748  0.5130292736227443  -4.416266954388716 
H  6.4293136452561015  0.5082200517456206  -3.8967202406095245 
C  5.539818118706925  -1.7368607178178528  -2.9453638108812696 
H  5.338187902779358  -2.3634000851263575  -2.2203518611606596 
H  6.502048628026381  -1.7458853725463723  -3.127131526776698 
H  5.052237307553661  -2.003547586952959  -3.7533212889864505 
C  1.6917903605735019  2.0656304780767107  -1.6685786066359956 
C  3.0347139054512455  2.748333567170052  -1.9129833012624466 
H  3.1077439109476206  2.9961318110445756  -2.858077502191605 
H  3.760758288881232  2.133477627773097  -1.6784115061163485 
H  3.097610438876397  3.5539045045122415  -1.357783642587542 
C  1.4297216683655727  0.9761302305021974  -2.70995664611039 
H  1.5228327057281479  1.354559945475514  -3.6097850661697217 
H  0.5206794722023211  0.6265875732705483  -2.5956365850092777 
H  2.0771214315640245  0.24966525472277037  -2.592943460629479 
C  0.5400022431726246  3.088991694619461  -1.7684935359023242 
H  0.46323789211723376  3.404892627920657  -2.693868851515679 
H  0.7257797182357132  3.848677165610406  -1.1779371500047104 
H  -0.2997533609474834  2.6625610374351987  -1.49877117872315 
C  2.089297644850654  2.2553215086471963  1.4787868522626018 
C  1.847645929000822  1.3532975804162237  2.6948612789017075 
H  2.0460355237037615  1.8512433903674848  3.51517604718618 
H  2.4316443321537844  0.5683035906752704  2.639927489797207 
H  0.9121253489809521  1.0635119013095562  2.706128689606461 
C  1.1716704808164555  3.471796586494025  1.5691421111252326 
H  1.257860888036934  3.8815011422652637  2.455345067949165 
H  0.2429708369334973  3.191649199826148  1.4275745188068565 
H  1.424742409880206  4.123255203921236  0.8821977476577104 
C  3.550575841312509  2.7103043938258113  1.4335697455462344 
H  3.8001265295298072  3.0916763298973455  2.3010574344429338 
H  3.660117453993777  3.3896012827087927  0.7348593750456232 
H  4.126211329746845  1.9424584269874623  1.2356956298437376 
N  1.5934383193271082  -1.2413920905580156  2.015979405059486e-16 
N  3.768736523950247  -0.9474726288704609  -0.0453246180870417 
P  1.5934383193271082  1.2413920905580156  -2.0753783625012933e-16 
Br  -1.5839191898578664  1.5839191898578664  0.0 
C  -1.2937473829822488  -1.2398794889499034  -0.459800567 
C  -1.601562203225019  -1.4938654694550033  -1.7919791134 
H  -1.1309417375171225  -1.0428217585005106  -2.480879663 
C  -2.60218398542082  -2.411889969420291  -2.121542410022 
H  -2.8231586547736818  -2.5626138747145775  -3.032700502 
C  -3.2683208079706407  -3.09759503004543  -1.14306436557 
H  -3.9596020908062854  -3.707191723557817  -1.368328076 
C  -2.9347449854640226  -2.896087320001541  0.14198826503 
H  -3.3668350933519986  -3.405606940434718  0.81710224434 
C  -1.9675509241539992  -1.9516175659140573  0.5112421903 
H  -1.7755298364628027  -1.8022912010877177  1.4301324877 
