113

Fe  0.0  0.0  0.0 
O  -1.5978253399718614  0.9715988178141755  0.1361495530323206 
O  1.1451326946369997  1.88653188357163  -0.13763789291499565 
O  1.5795900036419401  -0.9615118548140424  0.1392336312516305 
O  -1.1268973583070787  -1.8966188465717633  -0.13774529136895547 
C  -2.197841429727088  1.371365434851976  1.2543131385317767 
C  -3.1782408384222953  0.5477440447099389  1.8603174084264587 
C  -3.8576660198472053  0.9783599735958505  2.9882214312207083 
C  -3.610120733235242  2.2517714177760597  3.5778437890965593 
C  -2.6347620299419443  3.0225382471946842  2.9580977325718103 
C  -1.940223838360341  2.626930729505792  1.830103879582092 
C  -0.8599784642725146  3.5080447082436335  1.2474466748427864 
C  0.51899791520468  3.1586795571809176  1.8214759563841496 
C  0.8704161913247619  3.6475368288397294  3.0883590856250014 
C  2.0511227765409843  3.3040196119247875  3.7210932251417956 
C  2.873474137537393  2.405222430049219  3.0503070334831635 
C  2.6152822755566145  1.8986335100945422  1.77423889714167 
C  1.419551162324015  2.3373498002703434  1.1849473635338057 
C  3.5099965384766447  0.8681393886943919  1.1782678546511804 
C  3.293538677049657  -0.5232671439294199  1.755335567487578 
C  4.033840010633664  -1.029011587638445  2.8192554108739065 
C  3.8324639684439132  -2.3030011035899163  3.363092521484913 
C  2.8533774651212234  -3.0896655260620607  2.801857574757685 
C  2.0516963155132264  -2.641059876793534  1.7248887331436102 
C  2.272908676415163  -1.3493818709575827  1.1925445675666329 
C  0.9374102517229028  -3.4850554269898026  1.1509183773833476 
C  -0.3946691619931167  -3.1541990823604453  1.7823903520366047 
C  -0.6848936410292572  -3.614473565744179  3.0921517546264186 
C  -1.8411144276319384  -3.2850764633288105  3.7577711139814745 
C  -2.7178520723281796  -2.3961917079937325  3.13323826928443 
C  -2.4888215891637038  -1.902570444908055  1.8412024739555435 
C  -1.3585935023189302  -2.3213579150944437  1.19737214186324 
C  -3.4547425579619766  -0.843486572462783  1.287605623203905 
C  -4.380854396166107  2.7307024384842244  4.799130589249826 
C  -5.286030566066298  1.6795421612864516  5.410418723509209 
C  -3.3929411946049264  3.2323879342328024  5.876211356665455 
C  -5.2690105859864875  3.94646229780026  4.380647188193587 
C  2.4818155198740315  3.930143462926872  5.04987849524625 
C  3.4226168246965254  5.09622228695972  4.750498484246079 
C  3.160363031717855  2.9033097475173912  5.937981853571684 
C  1.2778412917077588  4.504708261372428  5.800472260407304 
C  4.714672895889188  -2.85019035136366  4.523128872405291 
C  5.539342717215705  -1.739321734800117  5.182024245380006 
C  3.875875118430562  -3.5145134785417813  5.553333309022969 
C  5.677761931644817  -3.876189643184702  3.935011297094018 
C  -2.1722669348110313  -3.9016294617010203  5.123101593091658 
C  -3.1015570149416862  -5.098448034726806  4.889470216279201 
C  -0.9231587962056349  -4.369140244729841  5.875345912326799 
C  -2.897365105631065  -2.8721583577879213  6.0307218048991 
C  1.7004245055999845  2.706157745822955  -1.1737038515326017 
C  -1.7610268020617734  -2.716130285461482  -1.1429546974591815 
H  -4.510725672207038  0.5418955895618098  3.4009803220146395 
H  -2.595226779419645  3.6567552539481114  3.2879022387733805 
H  -1.0485913709882129  4.432115417974976  1.4337827551838338 
H  -0.8222435429234827  3.387985117157863  0.2844377131507883 
H  0.1995443116298613  3.906713728783567  3.388680755789064 
H  3.672948609572802  2.382569547987726  3.198635842208951 
H  4.610698356790903  0.9425424651880815  1.2667821437121076 
H  3.5270358430804376  0.7904265187793409  0.15980272419840674 
H  4.762989186438572  -0.432409419202577  3.043377525000655 
H  2.673642491677385  -4.106905995144409  3.1902669816755203 
H  1.0167361999487476  -4.289817691537395  1.5439442181346967 
H  0.8993332456616421  -3.43302302415897  0.2382361212475883 
H  -0.0008895371614254244  -4.231444615862299  3.376964112518608 
H  -3.2630494543282005  -2.1885224129233074  3.653091343282532 
H  -4.296151281298242  -1.0897068973520312  1.6916906784893866 
H  -3.1601284812169617  -0.7897727665374839  0.17929832699192888 
H  -5.841702192953457  1.9875872170226658  6.536955707681966 
H  -4.448522641441413  1.07804528299096  5.608745377268346 
H  -5.945009322952001  1.259349740246746  4.7055142851105245 
H  -2.711752498939957  3.896474537228582  5.372244339272664 
H  -2.774875117431418  2.534193468217391  6.152955050130731 
H  -3.9281233149925967  3.2671245275516907  6.754091238598032 
H  -4.480499403815225  4.728409788219608  3.6828504643421756 
H  -5.520903068599214  4.1902912186901915  5.03643420738568 
H  -5.953097361786654  3.710440719749564  3.7778337777009288 
H  3.008702585397139  5.857879905443604  4.207618631322185 
H  4.204394803602263  4.650266290785239  4.246298820249673 
H  3.90085994711004  5.415915518546395  5.639345205307612 
H  3.5392834477524895  3.3716284563236836  6.7286071537576495 
H  3.9617172216113055  2.637650971280232  5.731841083833172 
H  2.5800444492852903  2.220821222970961  6.141704721080209 
H  1.0485558061292708  5.21631863844031  5.4470812908674135 
H  1.7441871043792703  4.743257217994222  6.684461959611091 
H  0.6858966913020499  3.8403132770319206  5.9387602021582095 
H  6.248763170133144  -1.3319425110572123  4.83111649533016 
H  6.331755651074296  -2.0361691877346164  5.9266182232900615 
H  4.750819668648971  -1.0221354436780932  5.7652996397741605 
H  3.272493578806245  -3.098985100168321  6.154211411808309 
H  4.282873344835881  -3.8253051290284006  6.353136005749311 
H  3.2939737140533656  -4.164943880892784  5.275956476390251 
H  6.014886176126331  -3.4580134744352296  3.4011752027047564 
H  4.993027776166411  -4.773256573952717  3.602358898870692 
H  6.325145861476833  -4.251090448584837  4.62562933443853 
H  -3.3327508702853925  -5.661541623377469  5.757252165660396 
H  -2.601023140576679  -5.802761612756369  4.203444499256618 
H  -4.235726902363852  -4.873291511467424  4.430282992482045 
H  -1.0175302202470127  -4.899251013763465  6.9287548153074905 
H  -0.2087153517285873  -3.6408526290369156  5.930821163313963 
H  -0.44734125843544353  -5.152805089686558  5.2572257852242466 
H  -2.9091548321418452  -3.098905494336779  7.135748337800321 
H  -3.5484768108471196  -2.585935367240551  5.650608338927741 
H  -2.134953970963999  -2.0881954543784205  6.30371361395831 
H  1.365321565404884  2.1853162626610483  -1.9646066135016713 
H  2.640575633158957  2.8517237639158495  -1.0429175688949668 
H  1.3531622786837219  3.7050728739746455  -1.0595552093731297 
H  -1.5184002070257576  -2.4270097142820166  -1.8479510880187988 
H  -2.6655558403621553  -3.0566072799653536  -1.186538812512679 
H  -1.376058057625228  -3.5143259641968125  -1.015224731299342 
F  0.0  0.0  1.7999999999999998 
P  4.07558885318402e-16  1.3120528632338896e-16  -2.27 
H  -0.21040940292629245  -1.2469678553342087  -3.0565404509136216 
H  0.21040940292629318  1.246967855334209  -3.0600481130433796 
