71

Pd  0.0  0.0  0.0 
C  1.11582  2.81282  -0.33899 
C  0.71514  4.13247  -0.59922 
H  -0.32341  4.4101  -0.4783 
C  1.63793  5.09929  -1.00271 
H  1.29534  6.11016  -1.18226 
C  2.98695  4.75285  -1.18275 
C  3.38462  3.44615  -0.89587 
H  4.42802  3.17882  -1.00054 
C  2.46903  2.48327  -0.44837 
C  3.0647  1.2071  0.02043 
H  3.99712  1.01139  -0.56616 
C  2.99489  -1.19472  0.31161 
H  3.10429  -1.32491  1.40774 
H  4.02099  -1.11206  -0.11506 
C  2.42318  -2.44286  -0.33681 
H  3.15379  -3.26615  -0.1845 
H  2.27312  -2.35934  -1.43445 
C  1.15107  -2.83326  0.35252 
H  0.89394  -3.86494  0.01148 
H  1.29886  -2.89171  1.45027 
N  2.22274  0.02164  0.0 
N  0.03216  -1.96768  0.0 
N  3.94947  5.71504  -1.62424 
O  0.1451  1.94604  0.0 
O  3.62912  6.8474  -1.79591 
O  5.08343  5.39259  -1.81253 
H  -0.8091  -2.28665  0.5336 
H  -0.2428  -2.2234  -0.97654 
C  1.80222  -0.07418  -2.56419 
H  2.78958  -0.25339  -2.12386 
C  1.82996  -0.08757  -4.05569 
H  2.79122  -0.17193  -4.55615 
C  0.71072  -0.00516  -4.75868 
H  0.76044  -0.01845  -5.84223 
C  -0.58415  0.0861  -4.06989 
H  -1.47946  0.14869  -4.67768 
C  -0.65852  0.07991  -2.72298 
C  -1.93467  0.15233  -2.015 
C  -4.12381  0.06637  -0.98536 
H  -5.18414  0.08422  -0.76387 
C  -3.15789  0.00053  -0.04872 
C  -3.52283  -0.05152  1.38132 
N  0.48251  0.0  -1.8775 
N  -1.84251  0.0  -0.6025 
O  -2.59206  -0.21954  2.3307 
O  -4.69478  0.04443  1.71685 
S  -3.60164  0.11169  -2.69351 
C  0.37116  0.87174  3.01824 
C  -0.33721  2.23526  2.93519 
H  -0.75253  2.47849  1.95413 
H  0.39558  3.01564  3.22669 
H  -1.21419  2.28332  3.61422 
C  0.45642  0.93352  5.4905 
H  0.17927  1.99996  5.43625 
H  1.56181  0.85248  5.5408 
C  -0.195  0.37686  6.75906 
H  0.16548  0.94442  7.64473 
H  -1.3002  0.50036  6.69137 
C  0.14278  -1.10296  6.9251 
H  -0.35882  -1.51333  7.82936 
H  1.24132  -1.22012  7.04572 
C  -0.31719  -1.86381  5.68935 
H  -0.02792  -2.93433  5.77796 
H  -1.42658  -1.81538  5.6161 
C  0.30017  -1.24895  4.42234 
H  1.40676  -1.38151  4.42636 
H  -0.14459  -1.85209  3.60256 
N  0.0  0.0  1.91 
H  0.71039  -0.7462  2.02906 
N  -0.04499  0.20011  4.29809 
