87

Pd  0.0  0.0  0.0 
O  0.08875  -1.95588  0.0 
O  0.31927  1.96693  0.0 
F  5.21886  -1.02978  -0.04822 
F  4.62649  -1.45866  -2.15644 
C  2.35716  -2.24017  -0.9486 
H  3.01864  -2.90322  -1.47905 
F  4.38315  0.59838  -1.39913 
N  1.99198  -0.01106  0.0 
C  0.90242  -2.66475  -0.88907 
C  2.8639  -1.04587  -0.5587 
C  1.5344  2.23938  0.55351 
C  -0.66691  -4.59762  -0.47665 
H  -1.45497  -3.88088  -0.28238 
C  4.29137  -0.73063  -1.02355 
C  0.64441  -4.16617  -0.76312 
C  -0.00469  -6.91218  -0.71701 
H  -0.25967  -7.96327  -0.73201 
C  1.63766  -5.15472  -0.97601 
H  2.66717  -4.91987  -1.18395 
C  2.4473  1.19181  0.60857 
C  3.71192  1.39622  1.18498 
H  4.42708  0.60568  1.28498 
C  1.30678  -6.51124  -0.96352 
H  2.07068  -7.25203  -1.16422 
C  -0.98577  -5.9573  -0.45231 
H  -2.00134  -6.26835  -0.24707 
C  4.06884  2.66278  1.65266 
H  5.04693  2.82516  2.08462 
C  3.17437  3.73042  1.54103 
H  3.46169  4.71872  1.87985 
C  -0.41563  2.94289  -0.65791 
H  -0.74853  3.73793  0.03842 
H  -1.30913  2.50114  -1.13324 
H  0.20411  3.38702  -1.46999 
C  1.90631  3.52419  1.00034 
H  1.23082  4.36379  0.92855 
C  -0.59114  0.16442  -3.1671 
H  -1.01998  1.18857  -3.16712 
H  -0.13478  0.0168  -4.16678 
C  -1.61374  -0.93332  -2.97195 
H  -2.06017  -1.14045  -3.96839 
H  -1.1539  -1.88571  -2.62016 
C  -2.74558  -0.4208  -2.0929 
H  -3.14458  0.49661  -2.58014 
C  -3.85279  -1.45387  -2.03997 
H  -3.52918  -2.3236  -1.42599 
H  -4.06105  -1.80679  -3.07452 
C  -5.14675  -0.846  -1.51475 
H  -5.01792  -0.45627  -0.48127 
H  -5.45088  -0.00014  -2.17545 
C  -6.21093  -1.92846  -1.55079 
H  -6.31646  -2.2943  -2.59757 
H  -5.89604  -2.76789  -0.89454 
C  -7.5537  -1.39422  -1.08692 
H  -7.85079  -0.54532  -1.74658 
H  -7.46553  -1.02178  -0.04193 
C  -8.63393  -2.43868  -1.14301 
C  -11.08779  -2.8468  -0.77116 
C  -12.2901  -2.18325  -0.47382 
H  -12.29359  -1.11544  -0.28226 
C  -13.48458  -2.88989  -0.42611 
H  -14.40595  -2.36976  -0.2019 
C  -12.3504  -4.90119  -0.94691 
H  -12.39741  -5.97022  -1.12461 
C  -11.13223  -4.22837  -1.01165 
H  -10.25891  -4.82787  -1.23651 
N  -9.8944  -2.05129  -0.80162 
H  -10.00608  -1.05313  -0.54584 
N  -13.49504  -4.22281  -0.66095 
O  -8.37761  -3.57014  -1.49057 
S  0.80788  0.0  -2.05593 
S  -2.16788  0.0  -0.42407 
N  1.30177  -1.15688  5.2522 
C  0.55644  -0.24753  6.12221 
N  -0.41816  0.58086  5.44562 
C  -0.45202  0.58249  4.17405 
C  0.38358  -0.21637  3.279 
C  1.2423  -1.08114  3.81528 
N  0.0  0.0  1.91 
C  -1.06399  0.96899  2.14073 
N  -1.33897  1.3256  3.43585 
H  1.88634  -1.87659  5.69456 
H  0.38941  -0.46929  7.19707 
H  1.82399  -1.75583  3.1938 
H  -1.55211  1.53737  1.37126 
H  -2.03743  2.03238  3.7595 
