40

Fe  0.0  0.0  0.0 
N  1.4121456644057653  1.2258648467510598  4.0758576466709967e-16 
N  1.4121456644057653  -1.2258648467510598  -2.220446049250313e-16 
N  2.6179739531802713  0.7151219074626287  -0.23564882337537624 
C  3.8712600866481446  -1.3090286720864497  -0.48131200533052615 
C  2.6169595865028414  4.730311055797462  0.26055331704165713 
H  3.3370155576268123  5.251285901998996  -0.015405263317817913 
C  1.492953797377884  2.620781125272301  0.3432677549115462 
C  0.8573141754522494  -4.539297886098866  1.5398860031262205 
H  0.6054954513413261  -4.894177864224502  2.3625414238904012 
C  2.5653447422203763  -0.6471499607828314  -0.25708857945528485 
C  2.564831671172337  3.397547950362088  -0.08920968162109597 
H  3.2390593181618543  3.0211497150893374  -0.6090776249668526 
C  4.417714185121124  -2.1934470546458513  0.43385205802266036 
H  3.944012503090122  -2.4185961815920187  1.2019679588321512 
C  1.3339290632905803  -2.649393561702759  0.1511481757016866 
C  1.465480952570974  -4.859558868409038  -0.756000234129208 
H  1.6259290373077273  -5.431241780156905  -1.4711267407836612 
C  0.4896325714417423  3.1834440010600025  1.123560562642298 
H  -0.22301124101752867  2.661315756909465  1.4178764188645079 
C  1.5827554370844952  -3.4925812774933442  -0.9272559237176603 
H  1.8254831174632158  -3.140454677938721  -1.7534130341174252 
C  0.5547726715156025  4.516387999193772  1.457421978804049 
H  -0.11190599776758314  4.89704439148427  1.9812473246314402 
C  5.815770971317555  -1.584223658625214  -1.8681246634737885 
H  6.278884705159475  -1.391809853281877  -2.652013454719259 
C  4.584896062962665  -1.0026504518483845  -1.6277303100838114 
H  4.231979534188341  -0.3990783027970678  -2.242817096324149 
C  0.9744943069519687  -3.167039109400616  1.3871232898866077 
H  0.8137360873412937  -2.5988754926316613  2.106281964594518 
C  1.6169646521211551  5.296880895727819  1.0131318429725378 
H  1.649854498213565  6.2022363824614875  1.224644184610703 
C  1.1116595239825224  -5.380339773981121  0.47998396684715994 
H  1.045275827920657  -6.301247619566198  0.5930907961591739 
C  5.660180972633658  -2.7404269576727684  0.20923559020905105 
H  6.03115287518086  -3.311625652093112  0.8432108097665777 
C  6.359461071614957  -2.4547104238083097  -0.9369116016669261 
H  7.192689097931419  -2.8419494218578216  -1.087112482324773 
Cl  -1.5202795795510768  1.5202795795510768  0.0 
Cl  -1.5202795795510768  -1.5202795795510768  0.0 
