61

Ni  0.0  0.0  0.0 
P  1.3190811404155547  -1.5297466930835313  6.218375892941589e-16 
N  1.3190811404155545  1.5297466930835313  -6.8694030020042e-16 
C  2.7449064933005607  -0.9934474164063555  -1.0193191104389032 
C  3.633150960184637  -1.9902563011023628  -1.398729276935458 
C  4.661426467711699  -1.7772085615821285  -2.3174646203860774 
C  4.742411611621934  -0.5646799590452399  -2.9290837293875818 
C  3.8481377050947536  0.4884346201748574  -2.621343184222174 
C  3.9104885429248957  1.685662790878276  -3.366206990764034 
C  3.085412941586231  2.7236841980690505  -3.0925617637102203 
C  2.211468013602283  2.6358358761164022  -1.9958070166581197 
C  2.115073071411428  1.5069309712664458  -1.2279784479490987 
C  2.8820954962323073  0.32250164176237367  -1.5778121845046766 
C  2.23599323916657  1.3693411330588294  1.1628429986361881 
C  0.6331890461554632  2.8197262785417667  0.23403376707756485 
C  1.906461422131948  -1.7212425344044988  1.7184265440825868 
C  3.1752968434951843  -2.2301069944615435  2.024193145896512 
C  3.6190045407692946  -2.2854266760680577  3.3270380108772653 
C  2.8031420334732635  -1.8417341333295858  4.359888598671508 
C  1.534037985488778  -1.3767995933722816  4.08863445779228 
C  1.086125410534018  -1.3138790651337255  2.7668664288539233 
C  0.9981103560315595  -3.2372685637370324  -0.5477444995724738 
C  0.7572687516692254  -3.498904396525296  -1.9034947540844909 
C  0.3706209731936855  -4.7618831653210405  -2.315260530917772 
C  0.20845624418571207  -5.778510971762115  -1.394506430282535 
C  0.4258494488621788  -5.532940396778374  -0.04328828828521859 
C  0.8213709926479273  -4.256723681405226  0.37844709534236903 
H  3.536483993797138  -2.880965881427371  -1.000426124642264 
H  5.307432548742526  -2.4854376199605164  -2.5193630456886997 
H  5.438801590302272  -0.415041939865356  -3.602902815500134 
H  4.560705633263546  1.7640809633393606  -4.0954824364356 
H  3.096222947350803  3.5253046268265575  -3.6553757222915544 
H  1.6561398960358398  3.410918878655867  -1.7687765979593872 
H  2.815485577323579  0.5824935847410552  1.090647252752952 
H  2.7870901315190535  2.1766985704594553  1.230927016682608 
H  1.6743141684998424  1.2890466074649167  1.9621055029078718 
H  0.02376093020485137  3.0535169032360425  -0.4962443548006388 
H  0.12065388310158598  2.6966271694857316  1.0604029860003008 
H  1.284568188710143  3.541486217616667  0.3585677503565751 
H  3.7533578911121395  -2.550590213818456  1.2999501056547402 
H  4.510609882285985  -2.639590056482317  3.5243626797671044 
H  3.12957597232404  -1.8559556904660466  5.2831533011696745 
H  0.9458649321749353  -1.0948134959678228  4.820544240638594 
H  0.1867547168265462  -0.976874473242218  2.5742846790846694 
H  0.8636328069136615  -2.7827745791162513  -2.5640933177899043 
H  0.21235583504665456  -4.936120224440112  -3.2666011025727797 
H  -0.06378626163846812  -6.6708153618755865  -1.6918046196594672 
H  0.30746550760032365  -6.2508326759153565  0.6117988265375575 
H  0.977488407255998  -4.083876293536703  1.3304090343730979 
Br  -1.5839191898578664  1.5839191898578664  0.0 
C  -1.29374738  -1.23987949  -0.45980057 
C  -1.6015622  -1.49386547  -1.79197911 
H  -1.13094174  -1.04282176  -2.48087966 
C  -2.60218399  -2.41188997  -2.12154241 
H  -2.82315865  -2.56261387  -3.0327005 
C  -3.26832081  -3.09759503  -1.14306437 
H  -3.95960209  -3.70719172  -1.36832808 
C  -2.93474499  -2.89608732  0.14198827 
H  -3.36683509  -3.40560694  0.81710224 
C  -1.96755092  -1.95161757  0.51124219 
H  -1.77552984  -1.8022912  1.43013249 
