56

Ni  0.0  0.0  0.0 
P  1.1974813808573395  -1.626695528517859  1.9921274721867081e-16 
N  1.1974813808573395  1.62669552851786  -1.992127472186709e-16 
C  2.8490444167286935  -1.09058495360616  0.5345173523949673 
C  3.933286700666165  -1.9677379333651102  0.4569792338848336 
H  3.8058748185253544  -2.8259911439533574  0.12258952291228421 
C  5.200983856993678  -1.5750422052456439  0.8732033141058877 
H  5.914087052821575  -2.170750592593904  0.8293103836614173 
C  5.394851045490064  -0.2949354006875116  1.3523759574699332 
H  6.241068336792962  -0.028092984642083894  1.631279401154367 
C  4.330662407242246  0.5997784959727261  1.4200471873042537 
H  4.476751727438456  1.4654570082159217  1.7270093901322523 
C  3.0476314068900834  0.21070557857394237  1.032802901249313 
C  1.9401847500707916  1.2263357693726509  1.2315134139002417 
H  1.3038006419526995  0.8625229109582545  1.8673340261700155 
H  2.3245576604251927  2.023559326126136  1.6281333533170799 
C  2.1514611954686824  2.0226770466984005  -1.0674447248329002 
H  2.7332902860724504  2.7106449056988273  -0.7365176266533028 
H  1.6629275548628302  2.3530007093506144  -1.8248855343279007 
H  2.6727484036847846  1.2611331417190124  -1.3290074464486221 
C  0.3736744864695133  2.809930126668946  0.346963768277529 
H  0.9475266119189034  3.5342267939583123  0.6074573111355925 
H  -0.21324414057803187  2.588969191633062  1.0743354273437207 
H  -0.1471442363170048  3.0721329283134695  -0.4160976963534644 
C  0.5514215946710398  -2.6713563210315834  1.3904083685225572 
H  -0.3982025007929917  -2.8357442905759807  1.2091558298280363 
C  0.628880511251548  -1.924511469796928  2.7180522155035702 
H  0.21472386326557436  -2.4497988422768584  3.4056997249458414 
H  0.1720944213399791  -1.0832936905565795  2.640204890865923 
H  1.5477644655767604  -1.7690358011384935  2.9447516970620815 
C  1.229474131456817  -4.043788860410441  1.5101585343365613 
H  2.166032821554831  -3.9232584467203995  1.6889170848386588 
H  1.1205851681023005  -4.527446214357216  0.6888867476344978 
H  0.8283556467098117  -4.538382944487783  2.2287879473096113 
C  1.4696990328140003  -2.7546825505709873  -1.4250388829933545 
H  2.018236779753385  -3.509552314747952  -1.128122953285824 
C  2.1977366833375367  -2.0335968836860796  -2.551737054835933 
H  2.435205038056756  -2.6654457834838734  -3.234343294428914 
H  2.9917323147538175  -1.620941049676618  -2.2059419421610276 
H  1.6231422420245765  -1.360283571023357  -2.9240270775378647 
C  0.10797589045094691  -3.2881785704381574  -1.8890040544651463 
H  -0.4721101257339586  -2.5503111306145394  -2.0943272023926927 
H  -0.28300444929976054  -3.817422675992694  -1.1905967587814388 
H  0.2267271555302932  -3.8293455003073777  -2.67364873268453 
Br  -1.5839191898578664  1.5839191898578664  0.0 
C  -1.2937473829822488  -1.2398794889499034  -0.4598005675376139 
C  -1.601562203225019  -1.4938654694550033  -1.7919791134336869 
H  -1.1309417375171225  -1.0428217585005106  -2.480879663633267 
C  -2.60218398542082  -2.411889969420291  -2.121542410022959 
H  -2.8231586547736818  -2.5626138747145775  -3.03270050271447 
C  -3.2683208079706407  -3.09759503004543  -1.143064365570095 
H  -3.9596020908062854  -3.707191723557817  -1.3683280760515548 
C  -2.9347449854640226  -2.896087320001541  0.14198826503765638 
H  -3.3668350933519986  -3.405606940434718  0.8171022443470677 
C  -1.9675509241539992  -1.9516175659140573  0.5112421903797603 
H  -1.7755298364628027  -1.8022912010877177  1.4301324877763764 
