33

Fe  0.0  0.0  0.0 
S  1.548069175618454  1.5490583680094172  1.2947925384081858e-15 
S  1.548069175618454  -1.5490583680094172  -1.3322676295501878e-15 
C  3.100895188155597  -0.7069486309332806  -0.21757972219305138 
C  4.297037848967795  -1.3833709379548518  -0.39699456981937903 
H  4.335763567919201  -2.3370577973456905  -0.2953596697262756 
C  5.412888433236002  -0.6837948649160005  -0.7057850353779367 
H  6.24421227626787  -1.1507268636950174  -0.8171255784113339 
C  5.382880918259512  0.6985971993364042  -0.8680793967615404 
H  6.1710764148563655  1.1781635025446024  -1.1329889473098058 
C  4.214876236726733  1.3625181827152226  -0.6557885544088079 
H  4.197825797458574  2.319098858176893  -0.734589530634101 
C  3.049115225179432  0.6896593211479982  -0.31896489673807105 
C  1.8664298177816545  -2.547292861256479  1.480905833607684 
H  1.079087272004942  -3.050404006772245  1.7002930503448417 
H  2.091872346881575  -1.9697491524615378  2.2141956947843084 
H  2.594854307095586  -3.149570525072907  1.312809286838901 
S  -1.5480691756184541  1.5490583680094177  -1.9828502194830842e-16 
S  -1.5480691756184541  -1.5490583680094177  2.220446049250313e-16 
C  -3.100895188155597  -0.7069486309332804  0.21757972219305227 
C  -4.297037848967809  -1.3833709379548516  0.3969945698193808 
H  -4.335763567919223  -2.3370577973456905  0.29535966972627686 
C  -5.412888433236006  -0.6837948649160004  0.7057850353779389 
H  -6.244212276267874  -1.1507268636950174  0.817125578411336 
C  -5.382880918259532  0.6985971993364042  0.8680793967615441 
H  -6.1710764148563735  1.1781635025446024  1.132988947309809 
C  -4.214876236726758  1.3625181827152235  0.655788554408819 
H  -4.197825797458589  2.3190988581768925  0.734589530634109 
C  -3.049115225179433  0.6896593211479982  0.31896489673807377 
C  -1.8664298177816547  -2.5472928612564787  -1.4809058336076844 
H  -1.0790872720049443  -3.0504040067722435  -1.700293050344844 
H  -2.0918723468815816  -1.9697491524615365  -2.2141956947843218 
H  -2.594854307095585  -3.1495705250729067  -1.3128092868389027 
33

Fe  0.0  0.0  0.0 
S  1.548069175618454  -1.5490583680094172  -1.1050876012006702e-15 
S  1.548069175618454  1.5490583680094172  1.1425626923426722e-15 
C  3.100895188155597  0.7069486309332806  0.2175797221930513 
C  4.297037848967795  1.3833709379548518  0.39699456981937886 
H  4.335763567919201  2.3370577973456905  0.2953596697262753 
C  5.412888433236002  0.6837948649160006  0.7057850353779366 
H  6.24421227626787  1.1507268636950174  0.8171255784113338 
C  5.382880918259512  -0.6985971993364041  0.8680793967615406 
H  6.1710764148563655  -1.1781635025446022  1.132988947309806 
C  4.214876236726733  -1.3625181827152226  0.6557885544088081 
H  4.197825797458574  -2.319098858176893  0.7345895306341014 
C  3.049115225179432  -0.6896593211479982  0.31896489673807116 
C  1.8664298177816545  2.547292861256479  -1.4809058336076841 
H  1.079087272004942  3.050404006772245  -1.7002930503448421 
H  2.091872346881575  1.9697491524615376  -2.214195694784309 
H  2.594854307095586  3.149570525072907  -1.3128092868389014 
S  -1.5480691756184541  1.5490583680094177  -1.9828502194830842e-16 
S  -1.5480691756184541  -1.5490583680094177  2.220446049250313e-16 
C  -3.100895188155597  -0.7069486309332804  0.21757972219305227 
C  -4.297037848967809  -1.3833709379548516  0.3969945698193808 
H  -4.335763567919223  -2.3370577973456905  0.29535966972627686 
C  -5.412888433236006  -0.6837948649160004  0.7057850353779389 
H  -6.244212276267874  -1.1507268636950174  0.817125578411336 
C  -5.382880918259532  0.6985971993364042  0.8680793967615441 
H  -6.1710764148563735  1.1781635025446024  1.132988947309809 
C  -4.214876236726758  1.3625181827152235  0.655788554408819 
H  -4.197825797458589  2.3190988581768925  0.734589530634109 
C  -3.049115225179433  0.6896593211479982  0.31896489673807377 
C  -1.8664298177816547  -2.5472928612564787  -1.4809058336076844 
H  -1.0790872720049443  -3.0504040067722435  -1.700293050344844 
H  -2.0918723468815816  -1.9697491524615365  -2.2141956947843218 
H  -2.594854307095585  -3.1495705250729067  -1.3128092868389027 
49

Fe  0.0  0.0  0.0 
S  1.201517716915908  -2.701247126963948  0.9332084493771707 
O  2.4994537207317036  -2.987276343296405  1.4776294697308727 
O  0.1279681111281683  -2.542405712119944  1.8562023490554986 
N  1.3118161828167845  -1.3326808704637427  5.597763801264499e-16 
N  1.3118161828167845  1.3326808704637427  -6.072955460798957e-16 
C  0.804283648738214  -3.964582083827355  -0.2139821720306046 
H  0.701851794919343  -4.797883660080613  0.25079013602686856 
H  1.5094524575204442  -4.0435651189506645  -0.8602889422901897 
H  -0.01700576822764721  -3.745499731502149  -0.6601738757629328 
C  2.568092320593098  -0.6873666778012937  -0.13222642853185765 
C  2.5416051399495205  0.7277443602552155  -0.11048271145810826 
C  1.2092914164714426  2.661864108746139  -0.01872007892495958 
H  0.3702445202253616  3.0610798263206442  0.031642275480983785 
C  2.347532141169747  3.455097153827775  -0.11322324727829625 
H  2.267219727826122  4.3821032416169  -0.11931910364343169 
C  3.57004631638818  2.886904879306339  -0.19644392117735995 
H  4.324901496725282  3.4263864768397525  -0.25178579177327054 
C  3.7179497608398204  1.4868895520429173  -0.20026027373365451 
C  4.946328456534889  0.8146368395925264  -0.3034081315183791 
H  5.741677718958053  1.297520659914841  -0.32487477619962396 
C  4.967496376359297  -0.5436696500699947  -0.37341662608143295 
H  5.783235365273057  -0.9829452808489442  -0.45739675569397487 
C  3.786503176722449  -1.2922774204005156  -0.3203291641692211 
H  3.8274350750789132  -2.2167570856419614  -0.4156951342633788 
S  -1.2015177169159053  2.701247126963981  0.9332084493770777 
O  -2.499453720731704  2.9872763432964566  1.4776294697307657 
O  -0.12796811112816942  2.542405712119937  1.856202349055405 
N  -1.3118161828167803  1.332680870463743  -4.563843414012439e-14 
N  -1.3118161828167847  -1.332680870463743  4.618527782440651e-14 
C  -0.8042836487382142  3.964582083827348  -0.21398217203074205 
H  -0.7018517949193415  4.797883660080622  0.2507901360266999 
H  -1.5094524575204462  4.043565118950635  -0.8602889422903353 
H  0.01700576822764477  3.745499731502127  -0.6601738757630625 
C  -2.5680923205930952  0.6873666778012895  -0.1322264285318826 
C  -2.54160513994952  -0.7277443602552192  -0.11048271145808372 
C  -1.209291416471439  -2.6618641087461397  -0.018720078924869408 
H  -0.37024452022536103  -3.061079826320643  0.031642275481090006 
C  -2.3475321411697454  -3.4550971538278956  -0.11322324727817358 
H  -2.267219727826124  -4.382103241617017  -0.11931910364327931 
C  -3.5700463163881673  -2.8869048793063463  -0.196443921177261 
H  -4.324901496725266  -3.426386476839853  -0.2517857917731519 
C  -3.7179497608398067  -1.486889552042924  -0.20026027373360505 
C  -4.9463284565348795  -0.8146368395925369  -0.3034081315183509 
H  -5.741677718958064  -1.2975206599148519  -0.3248747761995778 
C  -4.967496376359284  0.5436696500699818  -0.37341662608146015 
H  -5.783235365273077  0.9829452808489283  -0.4573967556940065 
C  -3.786503176722429  1.2922774204005043  -0.3203291641692632 
H  -3.8274350750789004  2.2167570856418495  -0.4156951342634564 
89

Fe  0.0  0.0  0.0 
N  4.38258999449954  1.5379267749013559  -0.9116444071830913 
N  3.1277510882267046  2.088900186657857  -0.6986836858248098 
O  1.0159183321015492  1.4737740473016887  -6.915860887009051e-15 
O  1.0159183321015526  -1.4737740473016887  -2.7755575615628914e-15 
C  2.146717692338207  -1.3151181424646454  -0.4962951951699155 
C  2.6577345907449716  -2.4576480798610207  -1.3347664181082992 
H  2.4122208121902595  -3.304156618455619  -0.9268001711880068 
H  3.624192789789726  -2.4178784828136903  -1.3975410041277074 
C  2.0454278840875415  -2.3533757185167863  -2.7124603651234045 
C  0.6727830179694585  -2.5678340682066034  -2.905221610626838 
H  0.1427858066003188  -2.7926810558480986  -2.176778168697752 
C  0.09933443698947042  -2.451956450933677  -4.128824370017022 
H  -0.808979107974207  -2.621280025641001  -4.239939450379101 
C  0.8696908147863427  -2.08260352604222  -5.197424415900339 
H  0.4746948583306114  -1.980191181845809  -6.0321966759448635 
C  2.2088083402421894  -1.8647229081904448  -5.050999932354841 
H  2.7283528023841908  -1.642726974961051  -5.789539983731342 
C  2.779352966831918  -1.9767183767646104  -3.8236774995408442 
H  3.6857981928204517  -1.7938045776693141  -3.7250594262321073 
C  2.860772633904879  -0.10135604421416389  -0.41769742627779394 
C  2.1945465381083027  1.1664789087903433  -0.32006090022467476 
C  4.232680339105278  0.25240667874500566  -0.7811465619987862 
C  5.436802789691671  -0.6023980162532049  -0.8555413696325741 
C  5.65815348226618  -1.6693622282224685  -0.0002899321747943384 
H  5.003324855349705  -1.9036126892290792  0.6193458244507403 
C  6.830055956518304  -2.3911372702973175  -0.04783190814949878 
H  6.949848641595683  -3.1190717674233825  0.5183609304627445 
C  7.815098829547252  -2.042559490724817  -0.9218094936076474 
H  8.61221513330142  -2.5240214803012613  -0.9459227862567517 
C  7.626258931113804  -0.9743331789082907  -1.77395845329869 
H  8.305391473126674  -0.7241107037092072  -2.361822139270534 
C  6.4465558020734575  -0.2779703973278973  -1.765653408924666 
H  6.314847585261678  0.4187239242201699  -2.367272248346233 
C  2.9313732100184255  3.455939227471948  -1.0403779934164237 
C  3.8916888316123512  4.368232137950085  -0.6924587320726319 
H  4.63264308834726  4.114697190931501  -0.18929151328078409 
C  3.725632721753839  5.674576233590066  -1.1092645167796369 
H  4.378043700174754  6.309296126176499  -0.9169533543606333 
C  2.6040975705329634  6.0446750394406905  -1.804542093351733 
H  2.507248064132413  6.928770523674222  -2.074917088252982 
C  1.6407697435614157  5.151594789174503  -2.109192424660877 
H  0.8739097307003767  5.417856836411972  -2.5638036683358427 
C  1.8111504808405101  3.835776167893658  -1.7303173789600446 
H  1.1635945823670477  3.2039802615233555  -1.9435450062646797 
N  -4.3825899944995355  1.5379267749013559  0.9116444071830847 
N  -3.1277510882267032  2.088900186657858  0.698683685824807 
O  -1.0159183321015524  1.4737740473016891  -2.324689504933324e-15 
O  -1.0159183321015517  -1.4737740473016887  -2.886579864025407e-15 
C  -2.146717692338206  -1.3151181424646454  0.4962951951699101 
C  -2.657734590744971  -2.4576480798610207  1.3347664181082917 
H  -2.412220812190261  -3.3041566184556195  0.9268001711880021 
H  -3.624192789789721  -2.41787848281369  1.3975410041276983 
C  -2.0454278840875406  -2.3533757185167863  2.7124603651233983 
C  -0.6727830179694563  -2.567834068206604  2.905221610626831 
H  -0.14278580660031914  -2.7926810558480994  2.176778168697746 
C  -0.09933443698946931  -2.4519564509336775  4.128824370017014 
H  0.8089791079742055  -2.6212800256410014  4.239939450379102 
C  -0.8696908147863422  -2.08260352604222  5.1974244159003335 
H  -0.47469485833061187  -1.9801911818458096  6.032196675944862 
C  -2.208808340242191  -1.8647229081904455  5.050999932354838 
H  -2.7283528023841916  -1.6427269749610516  5.789539983731341 
C  -2.7793529668319197  -1.9767183767646106  3.8236774995408336 
H  -3.685798192820447  -1.7938045776693143  3.7250594262320984 
C  -2.8607726339048765  -0.10135604421416411  0.41769742627778794 
C  -2.194546538108304  1.1664789087903429  0.32006090022466804 
C  -4.23268033910528  0.2524066787450059  0.7811465619987854 
C  -5.436802789691672  -0.6023980162532048  0.855541369632568 
C  -5.658153482266171  -1.669362228222468  0.0002899321747784622 
H  -5.0033248553497005  -1.903612689229079  -0.6193458244507419 
C  -6.830055956518298  -2.391137270297317  0.04783190814949134 
H  -6.949848641595682  -3.119071767423382  -0.5183609304627559 
C  -7.81509882954725  -2.042559490724817  0.9218094936076391 
H  -8.61221513330143  -2.524021480301261  0.9459227862567465 
C  -7.626258931113811  -0.9743331789082907  1.7739584532986836 
H  -8.305391473126672  -0.7241107037092068  2.3618221392705223 
C  -6.446555802073462  -0.2779703973278973  1.7656534089246627 
H  -6.314847585261678  0.4187239242201699  2.3672722483462296 
C  -2.9313732100184224  3.455939227471948  1.0403779934164181 
C  -3.8916888316123512  4.368232137950084  0.6924587320726221 
H  -4.632643088347259  4.114697190931501  0.18929151328077798 
C  -3.7256327217538376  5.674576233590065  1.1092645167796322 
H  -4.378043700174752  6.3092961261765  0.9169533543606287 
C  -2.6040975705329616  6.0446750394406905  1.804542093351724 
H  -2.5072480641324124  6.928770523674222  2.074917088252974 
C  -1.6407697435614135  5.151594789174503  2.1091924246608773 
H  -0.8739097307003754  5.417856836411971  2.5638036683358463 
C  -1.8111504808405097  3.835776167893658  1.73031737896004 
H  -1.163594582367049  3.2039802615233555  1.9435450062646737 
89

Fe  0.0  0.0  0.0 
N  4.38258999449954  -1.5379267749013557  0.9116444071830915 
N  3.1277510882267046  -2.088900186657857  0.69868368582481 
O  1.0159183321015492  -1.4737740473016887  7.096346153978496e-15 
O  1.0159183321015526  1.4737740473016887  2.595072294593446e-15 
C  2.146717692338207  1.3151181424646454  0.4962951951699153 
C  2.6577345907449716  2.4576480798610207  1.334766418108299 
H  2.4122208121902595  3.304156618455619  0.9268001711880064 
H  3.624192789789726  2.4178784828136903  1.3975410041277072 
C  2.0454278840875415  2.3533757185167867  2.712460365123404 
C  0.6727830179694585  2.567834068206604  2.9052216106268376 
H  0.1427858066003188  2.792681055848099  2.1767781686977514 
C  0.09933443698947042  2.4519564509336775  4.128824370017022 
H  -0.808979107974207  2.6212800256410014  4.239939450379101 
C  0.8696908147863427  2.0826035260422207  5.197424415900339 
H  0.4746948583306114  1.9801911818458096  6.0321966759448635 
C  2.2088083402421894  1.8647229081904455  5.050999932354841 
H  2.7283528023841908  1.6427269749610516  5.789539983731342 
C  2.779352966831918  1.9767183767646108  3.823677499540844 
H  3.6857981928204517  1.7938045776693146  3.7250594262321073 
C  2.860772633904879  0.10135604421416394  0.41769742627779394 
C  2.1945465381083027  -1.1664789087903433  0.3200609002246749 
C  4.232680339105278  -0.25240667874500555  0.7811465619987862 
C  5.436802789691671  0.602398016253205  0.855541369632574 
C  5.65815348226618  1.6693622282224685  0.000289932174794134 
H  5.003324855349705  1.9036126892290792  -0.6193458244507405 
C  6.830055956518304  2.3911372702973175  0.04783190814949849 
H  6.949848641595683  3.1190717674233825  -0.5183609304627448 
C  7.815098829547252  2.042559490724817  0.9218094936076472 
H  8.61221513330142  2.5240214803012613  0.9459227862567514 
C  7.626258931113804  0.974333178908291  1.7739584532986898 
H  8.305391473126674  0.7241107037092075  2.361822139270534 
C  6.4465558020734575  0.2779703973278975  1.765653408924666 
H  6.314847585261678  -0.41872392422016963  2.367272248346233 
C  2.9313732100184255  -3.455939227471948  1.0403779934164241 
C  3.8916888316123512  -4.368232137950085  0.6924587320726324 
H  4.63264308834726  -4.114697190931501  0.18929151328078458 
C  3.725632721753839  -5.674576233590066  1.1092645167796376 
H  4.378043700174754  -6.309296126176499  0.9169533543606341 
C  2.6040975705329634  -6.0446750394406905  1.8045420933517338 
H  2.507248064132413  -6.928770523674222  2.074917088252983 
C  1.6407697435614157  -5.151594789174503  2.1091924246608773 
H  0.8739097307003767  -5.417856836411972  2.563803668335843 
C  1.8111504808405101  -3.835776167893658  1.730317378960045 
H  1.1635945823670477  -3.203980261523355  1.9435450062646802 
N  -4.3825899944995355  1.5379267749013559  0.9116444071830847 
N  -3.1277510882267032  2.088900186657858  0.698683685824807 
O  -1.0159183321015524  1.4737740473016891  -2.324689504933324e-15 
O  -1.0159183321015517  -1.4737740473016887  -2.886579864025407e-15 
C  -2.146717692338206  -1.3151181424646454  0.4962951951699101 
C  -2.657734590744971  -2.4576480798610207  1.3347664181082917 
H  -2.412220812190261  -3.3041566184556195  0.9268001711880021 
H  -3.624192789789721  -2.41787848281369  1.3975410041276983 
C  -2.0454278840875406  -2.3533757185167863  2.7124603651233983 
C  -0.6727830179694563  -2.567834068206604  2.905221610626831 
H  -0.14278580660031914  -2.7926810558480994  2.176778168697746 
C  -0.09933443698946931  -2.4519564509336775  4.128824370017014 
H  0.8089791079742055  -2.6212800256410014  4.239939450379102 
C  -0.8696908147863422  -2.08260352604222  5.1974244159003335 
H  -0.47469485833061187  -1.9801911818458096  6.032196675944862 
C  -2.208808340242191  -1.8647229081904455  5.050999932354838 
H  -2.7283528023841916  -1.6427269749610516  5.789539983731341 
C  -2.7793529668319197  -1.9767183767646106  3.8236774995408336 
H  -3.685798192820447  -1.7938045776693143  3.7250594262320984 
C  -2.8607726339048765  -0.10135604421416411  0.41769742627778794 
C  -2.194546538108304  1.1664789087903429  0.32006090022466804 
C  -4.23268033910528  0.2524066787450059  0.7811465619987854 
C  -5.436802789691672  -0.6023980162532048  0.855541369632568 
C  -5.658153482266171  -1.669362228222468  0.0002899321747784622 
H  -5.0033248553497005  -1.903612689229079  -0.6193458244507419 
C  -6.830055956518298  -2.391137270297317  0.04783190814949134 
H  -6.949848641595682  -3.119071767423382  -0.5183609304627559 
C  -7.81509882954725  -2.042559490724817  0.9218094936076391 
H  -8.61221513330143  -2.524021480301261  0.9459227862567465 
C  -7.626258931113811  -0.9743331789082907  1.7739584532986836 
H  -8.305391473126672  -0.7241107037092068  2.3618221392705223 
C  -6.446555802073462  -0.2779703973278973  1.7656534089246627 
H  -6.314847585261678  0.4187239242201699  2.3672722483462296 
C  -2.9313732100184224  3.455939227471948  1.0403779934164181 
C  -3.8916888316123512  4.368232137950084  0.6924587320726221 
H  -4.632643088347259  4.114697190931501  0.18929151328077798 
C  -3.7256327217538376  5.674576233590065  1.1092645167796322 
H  -4.378043700174752  6.3092961261765  0.9169533543606287 
C  -2.6040975705329616  6.0446750394406905  1.804542093351724 
H  -2.5072480641324124  6.928770523674222  2.074917088252974 
C  -1.6407697435614135  5.151594789174503  2.1091924246608773 
H  -0.8739097307003754  5.417856836411971  2.5638036683358463 
C  -1.8111504808405097  3.835776167893658  1.73031737896004 
H  -1.163594582367049  3.2039802615233555  1.9435450062646737 
23

Fe  0.0  0.0  0.0 
O  1.4562195627720425  1.109019650412021  -1.229065272362243e-14 
N  1.4562195627720425  -1.109019650412021  1.2434497875801753e-14 
C  2.1808768841417607  0.04657727208062368  0.00045750497973059967 
C  3.588362742656807  -0.0038722217396296443  0.0018950909782140257 
H  4.101097423429937  0.794419435825759  -0.028734251065012255 
C  4.200291608158621  -1.2240811824169708  0.04768085130179489 
H  5.147687892424843  -1.269990170576995  0.06945504163570423 
C  3.454856111922553  -2.4012354415998343  0.0634384221482659 
H  3.8802482785442676  -3.2505696483021733  0.09890784422154036 
C  2.080821625352946  -2.2957016623232276  0.026629983591044078 
H  1.5593442902311145  -3.0892317676491783  0.018534868049820862 
O  -1.4562195627720425  1.1090196504120213  -9.914251097415421e-17 
N  -1.4562195627720425  -1.1090196504120209  1.1102230246251565e-16 
C  -2.1808768841417616  0.0465772720806239  -0.00045750497973137336 
C  -3.5883627426568108  -0.0038722217396296443  -0.0018950909782127628 
H  -4.101097423429934  0.7944194358257599  0.028734251065000417 
C  -4.200291608158621  -1.2240811824169706  -0.04768085130178053 
H  -5.14768789242484  -1.2699901705769954  -0.06945504163569002 
C  -3.454856111922555  -2.401235441599834  -0.06343842214823843 
H  -3.8802482785442685  -3.250569648302174  -0.09890784422150367 
C  -2.0808216253529443  -2.295701662323227  -0.026629983591019556 
H  -1.5593442902311156  -3.0892317676491783  -0.018534868049785234 
23

Fe  0.0  0.0  0.0 
O  1.4562195627720425  -1.109019650412021  1.242646846012929e-14 
N  1.4562195627720425  1.109019650412021  -1.2570313612308613e-14 
C  2.1808768841417607  -0.04657727208062368  -0.000457504979730594 
C  3.588362742656807  0.003872221739629644  -0.0018950909782140262 
H  4.101097423429937  -0.794419435825759  0.028734251065012352 
C  4.200291608158621  1.2240811824169708  -0.047680851301795044 
H  5.147687892424843  1.269990170576995  -0.06945504163570439 
C  3.454856111922553  2.4012354415998343  -0.06343842214826619 
H  3.8802482785442676  3.2505696483021733  -0.09890784422154077 
C  2.080821625352946  2.2957016623232276  -0.02662998359104436 
H  1.5593442902311145  3.0892317676491783  -0.01853486804982124 
O  -1.4562195627720425  1.1090196504120213  -9.914251097415421e-17 
N  -1.4562195627720425  -1.1090196504120209  1.1102230246251565e-16 
C  -2.1808768841417616  0.0465772720806239  -0.00045750497973137336 
C  -3.5883627426568108  -0.0038722217396296443  -0.0018950909782127628 
H  -4.101097423429934  0.7944194358257599  0.028734251065000417 
C  -4.200291608158621  -1.2240811824169706  -0.04768085130178053 
H  -5.14768789242484  -1.2699901705769954  -0.06945504163569002 
C  -3.454856111922555  -2.401235441599834  -0.06343842214823843 
H  -3.8802482785442685  -3.250569648302174  -0.09890784422150367 
C  -2.0808216253529443  -2.295701662323227  -0.026629983591019556 
H  -1.5593442902311156  -3.0892317676491783  -0.018534868049785234 
83

Fe  0.0  0.0  0.0 
S  1.320710991487973  -2.2019997943928327  1.3938293223097167 
O  1.9631169879552126  -3.4626488809278735  1.1736425009027347 
O  -0.006562077852952486  -2.1999185200117206  1.9332672591470061 
N  1.273154595875929  1.369663234156484  -5.192625344207811e-16 
N  2.514667279915819  1.2632242925506785  -0.19070075269365083 
N  1.2731545958759287  -1.369663234156484  -2.220446049250313e-16 
F  -0.5264564423783618  1.5759686367936658  2.1458672563409307 
F  2.298745265860161  3.8155952022896424  -0.8856986253266891 
C  0.9505382567631675  2.6313605455136515  0.6370974668381484 
C  0.04168850993013029  2.711247734036592  1.6818392458397597 
C  -0.3001041525510135  3.908862665279313  2.2731580366273727 
H  -0.893677254825451  3.9315012374675304  3.001363809266958 
C  0.24915670790388567  5.0755756025541015  1.7744844668766222 
H  0.00707040951385296  5.901231024119429  2.152631064073514 
C  1.1433556235821054  5.041685731787009  0.7322506563238695 
H  1.5182591615597805  5.838881624741271  0.4051116255300974 
C  1.4843505203390432  3.8354192176555233  0.17142733541896343 
C  3.0509446859327776  0.11816420340703049  -0.7794950427866219 
C  4.290619229827866  0.3235495295111117  -1.4017603182436795 
H  4.662063942502883  1.1863355089623115  -1.4376607233696796 
C  4.966689620637624  -0.7412947465332933  -1.9605138904433004 
H  5.784109347819608  -0.6023894337122426  -2.4008278053765357 
C  4.432365508810301  -2.017546993368654  -1.8694570073007089 
H  4.892939760833814  -2.7423650072006422  -2.251686657115634 
C  3.228494953148954  -2.2386843375323324  -1.2244128303423174 
H  2.893546525766979  -3.114478784726315  -1.158162945372432 
C  2.4978017368334093  -1.1769647018325569  -0.667116500908882 
C  2.3652115335229356  -1.2739018004484572  2.48404349453694 
C  3.7185579384115384  -1.5343913581021869  2.52810729746529 
H  4.086452389524045  -2.2286346043886405  2.0115125551127573 
C  4.528048257345253  -0.7626370438739993  3.340413195525149 
H  5.452329569570742  -0.9368492765232541  3.369299072110003 
C  4.006554173332782  0.26241500540922935  4.112310226611723 
C  2.6542860243901036  0.4899620638596529  4.074268807792277 
H  2.2872209079739116  1.1737404676632548  4.6041751719757595 
C  1.8141029328939724  -0.27084048527334614  3.2658439603285467 
H  0.8874023765441719  -0.10683801050564057  3.25031054051638 
C  4.9142013771730175  1.1054393461415013  4.986829782879031 
H  5.827842415374277  0.7934000949286202  4.900416884437652 
H  4.63193855718109  1.0302863980057544  5.911952712460117 
H  4.861127285053382  2.032792317532484  4.7074407580444895 
S  -1.5620244247777988  -2.2019997943928327  -1.36439584155192 
O  -2.156435790396678  -3.4626488809278726  -1.0360015221103676 
O  -0.348588030422745  -2.1999185200117206  -2.1261170537756495 
N  -1.2731545958759303  1.369663234156484  2.6071941521583756e-15 
N  -2.4626910743964463  1.2632242925506785  0.40338999489187927 
N  -1.273154595875929  -1.369663234156484  -2.220446049250313e-16 
F  0.12649036842451356  1.5759686367936658  -2.4257658882817434 
F  -2.1293642868432983  3.8155952022896424  1.0503348239289465 
C  -1.0660703379819285  2.6313605455136524  -0.683440264139153 
C  -0.3524455670337021  2.711247734036592  -1.8701301703063238 
C  -0.11852693354006494  3.908862665279313  -2.51181717295556 
H  0.3395768541738997  3.9315012374675304  -3.3320327511613224 
C  -0.5728495307043315  5.075575602554103  -1.925341427760967 
H  -0.4001055346459903  5.901231024119429  -2.3397809730092227 
C  -1.2724815536940084  5.041685731787011  -0.7436654784978867 
H  -1.5848823679850654  5.838881624741271  -0.35639510848857225 
C  -1.5109100240895852  3.8354192176555233  -0.13214918158511685 
C  -2.8885781661118832  0.11816420340703049  1.0763627709835466 
C  -4.0013640370431185  0.3235495295111117  1.9044416641314077 
H  -4.360931629973232  1.1863355089623115  2.004297358895802 
C  -4.570136859917207  -0.7412947465332937  2.572104905395542 
H  -5.298678435781596  -0.6023894337122426  3.1476729085951014 
C  -4.05974219379004  -2.017546993368654  2.389646972609275 
H  -4.446945805879955  -2.7423650072006422  2.846047574722352 
C  -2.9861718827951247  -2.2386843375323324  1.5453525379678092 
H  -2.6678162464457644  -3.1144787847263142  1.4219459535860086 
C  -2.363353030320725  -1.1769647018325564  0.8696392465697271 
C  -2.7799703608732136  -1.2739018004484572  -2.2566715951086005 
C  -4.120407991998293  -1.534391358102186  -2.0650598328986325 
H  -4.393007564142231  -2.2286346043886405  -1.4924291244550538 
C  -5.058655772978723  -0.7626370438739984  -2.7244584604036612 
H  -5.973911155051963  -0.9368492765232537  -2.5924057300974335 
C  -4.679122868687948  0.26241500540923024  -3.5751851384976785 
C  -3.3407928884038647  0.48996206385965335  -3.772540554089632 
H  -3.0713215903714435  1.1737404676632557  -4.358136638458813 
C  -2.3729925644059624  -0.2708404852733457  -3.12229375932451 
H  -1.4576733217486397  -0.10683801050564012  -3.2679161899157787 
C  -5.724839599309572  1.1054393461415022  -4.278807494759178 
H  -6.609594934859032  0.7934000949286215  -4.0350553010884775 
H  -5.607510896634078  1.0302863980057557  -5.238890152614737 
H  -5.624056426883408  2.0327923175324845  -4.012879236373504 
37

Fe  0.0  0.0  0.0 
O  1.1506777850467091  1.3711457380599623  2.039220202911929e-16 
O  1.1506777850467091  -1.3711457380599628  0.0 
O  5.321476865741789  -3.4189142480454486  -0.7558725606775565 
C  3.05405060447334  2.6060311612504425  -0.5455796109273846 
C  2.358589854829556  1.2846006964162484  -0.32399612256914234 
C  3.0563865585903525  0.055172213208375176  -0.46753404403160764 
C  4.447622762832386  0.046253427509269196  -0.798870201533147 
C  5.181861809449453  -1.0857038414503661  -0.8955927618401027 
C  4.552505320153237  -2.3225822074215814  -0.686637390592678 
C  3.209964149301407  -2.385857913709926  -0.41948393364043246 
C  2.4312526637315752  -1.2159163856344872  -0.29306881141952495 
H  4.8967428999391185  -4.132410711509799  -0.6946788116716371 
H  2.4746248464426657  3.3218269244263317  -0.2736259267272324 
H  3.2662968647624533  2.703651568246263  -1.4772701824860217 
H  3.8619312145647617  2.6337405935488327  -0.028927699869260026 
H  4.868191776640771  0.8603820675322029  -0.9565549253292932 
H  6.088178432993085  -1.045693707241278  -1.0972474594026602 
H  2.803480971801449  -3.216526680993213  -0.31912514992122226 
O  -1.1506777850467091  1.3711457380599628  1.1879791488361443e-17 
O  -1.1506777850467091  -1.3711457380599628  2.220446049250313e-16 
O  -5.380448430911897  -3.418914248045449  -0.275587704532366 
C  -3.129499950922345  2.606031161250443  0.068906004317587 
C  -2.4010914602130677  1.2846006964162489  0.022151675419248982 
C  -3.112885585732284  0.05517221320837562  -0.007386394144194151 
C  -4.542953600252254  0.04625342750926986  -0.022462836316862266 
C  -5.278781914386462  -1.0857038414503661  -0.10624185139744094 
C  -4.617569123010372  -2.322582207421581  -0.15673524020273938 
C  -3.250276891861371  -2.3858579137099265  -0.0911629927702907 
C  -2.46411387941079  -1.215916385634487  -0.025435686883605847 
H  -4.953526771330939  -4.132410711509799  -0.23221129153508124 
H  -2.5014940634139355  3.3218269244263325  -0.05479371546477771 
H  -3.5608379393827363  2.703651568246264  0.9215743664894885 
H  -3.7883936445469297  2.6337405935488336  -0.6278431455659708 
H  -4.9891773042425  0.8603820675322034  0.028793124230548597 
H  -6.206961747554657  -1.045693707241278  -0.12983499575017443 
H  -2.831589014732651  -3.216526680993213  -0.09020351087713002 
37

Fe  0.0  0.0  0.0 
O  1.1506777850467091  -1.3711457380599623  -3.600509636322608e-17 
O  1.1506777850467091  1.3711457380599628  -1.6791692392796686e-16 
O  5.321476865741789  3.4189142480454486  0.755872560677556 
C  3.05405060447334  -2.6060311612504425  0.5455796109273849 
C  2.358589854829556  -1.2846006964162484  0.3239961225691425 
C  3.0563865585903525  -0.05517221320837512  0.46753404403160764 
C  4.447622762832386  -0.0462534275092691  0.798870201533147 
C  5.181861809449453  1.0857038414503661  0.8955927618401026 
C  4.552505320153237  2.3225822074215814  0.6866373905926777 
C  3.209964149301407  2.385857913709926  0.4194839336404322 
C  2.4312526637315752  1.2159163856344872  0.2930688114195248 
H  4.8967428999391185  4.132410711509799  0.6946788116716366 
H  2.4746248464426657  -3.3218269244263317  0.2736259267272328 
H  3.2662968647624533  -2.703651568246263  1.477270182486022 
H  3.8619312145647617  -2.6337405935488327  0.02892769986926035 
H  4.868191776640771  -0.8603820675322028  0.9565549253292933 
H  6.088178432993085  1.0456937072412782  1.09724745940266 
H  2.803480971801449  3.216526680993213  0.3191251499212219 
O  -1.1506777850467091  1.3711457380599628  1.1879791488361443e-17 
O  -1.1506777850467091  -1.3711457380599628  2.220446049250313e-16 
O  -5.380448430911897  -3.418914248045449  -0.275587704532366 
C  -3.129499950922345  2.606031161250443  0.068906004317587 
C  -2.4010914602130677  1.2846006964162489  0.022151675419248982 
C  -3.112885585732284  0.05517221320837562  -0.007386394144194151 
C  -4.542953600252254  0.04625342750926986  -0.022462836316862266 
C  -5.278781914386462  -1.0857038414503661  -0.10624185139744094 
C  -4.617569123010372  -2.322582207421581  -0.15673524020273938 
C  -3.250276891861371  -2.3858579137099265  -0.0911629927702907 
C  -2.46411387941079  -1.215916385634487  -0.025435686883605847 
H  -4.953526771330939  -4.132410711509799  -0.23221129153508124 
H  -2.5014940634139355  3.3218269244263325  -0.05479371546477771 
H  -3.5608379393827363  2.703651568246264  0.9215743664894885 
H  -3.7883936445469297  2.6337405935488336  -0.6278431455659708 
H  -4.9891773042425  0.8603820675322034  0.028793124230548597 
H  -6.206961747554657  -1.045693707241278  -0.12983499575017443 
H  -2.831589014732651  -3.216526680993213  -0.09020351087713002 
