66

Pd  0.0  0.0  0.0 
S  -0.00482  2.11357  0.0 
N  0.4522  -2.13469  0.0 
N  1.95262  0.02111  0.0 
N  2.30897  1.20166  0.60467 
N  2.05333  3.61374  0.21594 
H  1.48935  4.4381  -0.0452 
C  -0.1291  -3.42381  -0.05941 
H  -1.19408  -3.61107  -0.04933 
C  0.86379  -4.39305  -0.05056 
H  0.73893  -5.46746  -0.07431 
C  2.06812  -3.73217  0.00193 
H  3.05409  -4.17876  0.0181 
C  1.72878  -2.32078  0.05846 
C  2.63668  -1.18297  0.3352 
C  4.16597  -1.18934  0.18555 
H  4.5513  -0.34883  -0.44079 
H  4.58046  -2.13978  -0.21501 
H  4.52489  -1.03537  1.22197 
C  1.44393  2.32015  0.32782 
C  3.49164  3.79264  0.37906 
H  3.79032  4.84043  0.14627 
H  4.05067  3.1256  -0.31315 
H  3.80525  3.56589  1.42167 
N  -1.96411  0.0  -0.03589 
C  -2.74128  -0.71524  -1.00682 
N  -0.03589  0.0  -1.96411 
C  -3.94163  -1.33454  -0.61434 
C  -0.03668  1.25043  -4.56693 
C  -3.20028  -1.3951  -3.29452 
C  -1.24378  0.0457  -2.78008 
C  -4.38092  -2.01578  -2.8749 
C  -2.41227  -0.71898  -2.359 
C  -1.17464  0.71275  -4.13449 
C  1.17385  1.15259  -3.76396 
C  -4.76543  -1.96337  -1.55317 
C  1.16644  0.54015  -2.5797 
H  -2.41241  0.02495  0.88199 
H  -2.11854  0.92057  -0.46454 
H  -4.26028  -1.30944  0.41956 
H  0.0237  1.74268  -5.53511 
H  -2.92119  -1.39325  -4.34611 
H  -5.0087  -2.47836  -3.63745 
H  -2.04933  0.78398  -4.76351 
H  2.095  1.61005  -4.11796 
H  -5.69083  -2.42673  -1.25078 
H  2.12119  0.60222  -2.09878 
N  0.0  0.0  1.91 
C  -0.74534  -1.21732  2.36924 
C  -0.97352  0.04101  3.03485 
C  -0.33653  0.08419  4.45108 
C  -0.6825  -0.89771  5.42373 
C  -0.32902  -0.73151  6.77553 
C  0.36282  0.4162  7.1766 
C  0.81233  1.3254  6.19899 
C  0.48249  1.14538  4.8502 
C  0.55782  0.69694  8.64712 
H  -1.71954  -1.52303  1.95133 
H  -0.00554  -1.99744  2.63209 
H  -1.29001  -1.75976  5.1625 
H  -0.67053  -1.43894  7.51798 
H  1.38868  2.20368  6.49334 
H  0.81118  1.87986  4.12957 
H  1.20233  -0.06346  9.13085 
H  0.98338  1.71264  8.82574 
H  -0.43749  0.68778  9.15162 
