51

Ni  0.0  0.0  0.0 
P  1.4350663460272486  1.4215078552368254  -7.437194973201012e-16 
N  1.4350663460272493  -1.4215078552368254  -1.1102230246251565e-15 
C  2.706337649603041  -0.962079915676691  -0.007514722634161863 
C  1.4944033146774032  2.9781408044310105  -1.0126675839753347 
C  2.8965659772693986  0.44747484521921876  -0.48246324551737524 
H  3.0004480455014715  0.46178097791140305  -1.447560826318011 
H  3.6949999281893966  0.827775744020748  -0.08434503142885541 
C  1.0502851185487165  2.6404097512881375  -2.43216109350978 
H  1.654119113593222  1.9959438226440964  -2.8102646947166203 
H  1.0561758349913781  3.436640504308798  -2.966752608036474 
H  0.16382913061081927  2.2738400393584155  -2.4109276824597767 
C  0.5705623464746352  2.3481033117076273  2.476479282127193 
H  -0.2338842847519007  2.5247251883121504  2.045373192848709 
C  2.9480334911183963  3.4847392184651174  -0.9959171500009241 
H  3.250411174847352  3.55902349316046  -0.08771151639380315 
H  2.9914819198853557  4.345936548814057  -1.4185813574251336 
H  3.5082901836223073  2.866822668258182  -1.4704392100623211 
C  0.7018680160292339  2.6045462983974677  3.8291323587586366 
H  -0.016079722906115146  2.9457555067835806  4.309898684815429 
C  1.6416045936283132  1.8255357949236686  1.759793643081584 
C  2.8262822755117907  1.5518215318848787  2.434058192243353 
H  3.5486111799006013  1.189223911969422  1.9740293019374096 
C  1.2143184148391146  -2.6913588225389145  0.38817085377203453 
H  0.3455351814834795  -3.021056261968061  0.40697542433355577 
C  3.764501725335725  -1.7424002571462065  0.39444652365421873 
H  4.628929141598685  -1.3986883999095112  0.3909678446155611 
C  1.895828248321736  2.3534882274306046  4.459694376887289 
H  1.99021548216173  2.5544834375150383  5.363192398806069 
C  2.9327547697288106  1.818548274620206  3.7831930641835534 
H  3.7262602788826937  1.6265385337000429  4.230366371005687 
C  0.5863654643740823  4.0479590009309785  -0.4159392296514386 
H  -0.3062857668477532  3.7047233457761113  -0.34017251909479784 
H  0.5861186641177029  4.821062161037618  -0.9844044114548314 
H  0.9104021180000402  4.291838821026831  0.45509921407933274 
C  2.2616460529255478  -3.5135687742421213  0.7595229155954851 
H  2.094793764811689  -4.400561238163423  0.9838697294752201 
C  3.531076873054533  -3.0328117545166506  0.7991851254599771 
H  4.230266725850055  -3.569647894527191  1.0972871357288894 
Br  -1.5839191898578664  1.5839191898578664  0.0 
C  -1.2937473829822488  -1.2398794889499034  -0.4598005675376139 
C  -1.601562203225019  -1.4938654694550033  -1.7919791134336869 
H  -1.1309417375171225  -1.0428217585005106  -2.480879663633267 
C  -2.60218398542082  -2.411889969420291  -2.121542410022959 
H  -2.8231586547736818  -2.5626138747145775  -3.03270050271447 
C  -3.2683208079706407  -3.09759503004543  -1.143064365570095 
H  -3.9596020908062854  -3.707191723557817  -1.3683280760515548 
C  -2.9347449854640226  -2.896087320001541  0.14198826503765638 
H  -3.3668350933519986  -3.405606940434718  0.8171022443470677 
C  -1.9675509241539992  -1.9516175659140573  0.5112421903797603 
H  -1.7755298364628027  -1.8022912010877177  1.4301324877763764 
