26

Ru  0.0  0.0  0.0 
N  1.47022  1.32637  0.0 
N  2.67306  0.67782  0.10011 
C  1.49451  2.78651  -0.09731 
C  2.66595  3.48793  0.29109 
H  3.53582  2.95793  0.65163 
C  2.74299  4.89026  0.21911 
H  3.64712  5.40494  0.51396 
C  1.65493  5.63506  -0.22694 
H  1.69519  6.71661  -0.2698 
C  0.51594  4.98216  -0.65936 
H  -0.32743  5.54818  -1.03956 
C  0.45285  3.59228  -0.63376 
H  -0.42588  3.23991  -1.09428 
C  2.68823  -0.61585  0.10455 
C  3.90706  -1.275  0.24239 
H  4.82039  -0.70314  0.35564 
C  3.93201  -2.66326  0.25952 
H  4.88585  -3.15956  0.38037 
C  2.74023  -3.38995  0.12123 
H  2.79766  -4.47823  0.13482 
C  1.49359  -2.73732  -0.00233 
H  0.59091  -3.31509  -0.07639 
C  1.47022  -1.32637  0.0 
Cl  -1.58392  1.58392  0.0 
Cl  -1.58392  -1.58392  0.0 
