37

Fe  0.0  0.0  0.0 
S  -0.6913021403268973  -4.323895589532093  0.31192376028342417 
S  -2.048951398873793  3.886728052186058  0.04377795139209018 
O  4.347342075860503  0.7066560848707077  -0.4514733865834001 
N  -1.0000638439106977  -1.6348110461308432  -0.020590463232674987 
N  1.1383090523035537  -2.525283435464602  0.1259761788469536 
N  1.4625532332711009  -1.1995698401353954  0.02101330794494253 
N  1.0023410345388981  1.6056332949641188  -0.021054173153005333 
N  0.26808267568022703  2.766174155367179  -0.007071548896680595 
N  -1.4648304238993017  1.2287475913021197  0.02063132844073779 
C  -0.20753066120545643  -2.6478364859083126  0.10810566209658518 
C  2.730214483388892  -0.890869401285609  -0.0065003977986950665 
C  3.1660982423155706  0.5125835627582315  -0.1716022343133381 
C  2.301616374689712  1.7147045016914702  -0.07515225388630459 
C  -1.0442527952607215  2.450585902157192  0.030584740698382247 
C  3.776230912537693  -1.9386581017440008  0.11391022940049761 
C  2.9717693945275574  3.046566849805801  -0.06698918598297554 
C  -2.468698288134589  -4.21781659010061  0.1862333484056946 
C  -3.6972323178208093  3.1922773988083284  0.20344013307085362 
H  -1.8338424196759535  -1.6765462363918953  -0.0199192786569009 
H  -2.276672323307018  1.001559876743564  0.1448816110147914 
H  3.696464598240607  -2.3811948000228806  0.8322115559897542 
H  3.8393312424582784  -2.434453414088571  -0.5731265357155062 
H  4.575726937782662  -1.6319863508571653  0.01958614538426607 
H  3.80664446913402  3.002561399030448  0.08057795162872472 
H  2.45158141133516  3.7079956387091366  0.3661712338987291 
H  2.889315482777727  3.50175113123284  -0.8859628866467399 
H  -2.9059712172632057  -5.032920244872583  0.2747541788844642 
H  -2.868507883399278  -3.6981228734266516  0.9150063915294728 
H  -2.703849427775498  -3.9580206506843423  -0.5615778452711585 
H  -3.75225120466117  2.7180040138941424  1.0799068400557148 
H  -3.882419487392271  2.766292929281142  -0.6544570833529737 
H  -4.244312573044576  3.884060785997508  0.1747375277298241 
N  1.6330625927164817e-16  -1.2621692506944098e-16  1.8699999999999999 
S  0.008043313338300218  0.006710385577893052  4.6268850204235825 
C  -0.008043313338298885  -0.006710385577894273  2.997318963663762 
Cl  0.0  0.0  -2.15 
