54

Pd  0.0  0.0  0.0 
P  1.5978050538160153  -1.392522534826635  1.7053482650159972e-16 
N  1.5978050538160153  1.392522534826635  -1.7053482650159972e-16 
C  2.8128329248012416  1.0064872308687547  -0.06661851715014144 
C  3.1050520400363695  -0.3948657966015992  -0.24425334225735817 
C  4.293556377527445  -0.8973306418740018  -0.6299750152682326 
C  5.565742059950288  -0.21068785076180072  -0.7925922248494587 
C  6.041499610941235  0.7517503909768517  0.09102418712699294 
C  7.286679500205183  1.3177095336761946  -0.10230644202323583 
C  8.050391773081483  0.9627639743488302  -1.1763724707998722 
C  7.60832473115747  0.02358411384997014  -2.0497625784138345 
C  6.384872917950409  -0.5758302648221243  -1.8604329362508232 
C  1.6611082481527026  -2.79649786815465  -1.1298630355017745 
C  1.8318183232688374  -2.5488150469621447  -2.483667921864653 
C  1.8508354085610774  -3.5987230688686025  -3.385474079530175 
C  1.6516548781272722  -4.888670272648415  -2.93364347215975 
C  1.4707793483762615  -5.134377283804682  -1.614249335669061 
C  1.4796258730851017  -4.099562611897489  -0.6930669032452762 
C  1.698321883993131  -2.015500560893553  1.7023634969914503 
C  2.8890135706492  -2.073449439983  2.392221514804138 
C  2.904960982630037  -2.4993417075532585  3.706330485352241 
C  1.761721187893051  -2.875369510984956  4.324724819718307 
C  0.5777790056460435  -2.8383057804461713  3.655114635376142 
C  0.5274796107116562  -2.3944298541747497  2.3428601962729836 
H  1.4436497976170601  2.2275207132545045  0.1329926276467062 
H  3.504843906601389  1.623839200764901  -0.000379507998797023 
H  4.302545988253353  -1.8092442578056058  -0.8165859312874856 
H  5.520428797385162  1.014241827099648  0.8152706805408041 
H  7.608246086258497  1.9436181909522574  0.5060263069562315 
H  8.87744415144635  1.366749300209311  -1.3104737382451381 
H  8.13517046556055  -0.2157317045051611  -2.7787123717647133 
H  6.099406388525885  -1.2326527557514153  -2.4532834114869786 
H  1.9343940886177677  -1.6737514917775926  -2.7870239944111828 
H  1.9964544213416966  -3.437791655268248  -4.289030487970401 
H  1.6408639850528917  -5.593097608987446  -3.541154216463879 
H  1.3386803398007965  -6.007474587146609  -1.3230539359278661 
H  1.3657877041309028  -4.278009971839809  0.21287059516109222 
H  3.6822655120720404  -1.8251515407730279  1.9744030366622338 
H  3.7097389318914873  -2.5304899359770077  4.170570391272178 
H  1.7847252588861857  -3.1591606598651416  5.210252332862319 
H  -0.20201850648262276  -3.112171093546816  4.079917072231472 
H  -0.2863102749577293  -2.3510082732036905  1.8953211831264196 
Br  -1.654629867976521  1.654629867976521  0.0 
C  -1.352040782177733  -1.3199206589279684  -0.4819701001757076 
C  -1.6380700204479186  -1.599217458033982  -1.8139382277462257 
H  -1.1579680913617836  -1.159339363685303  -2.503515938957912 
C  -2.63068216563725  -2.52632649780156  -2.142289956238523 
H  -2.8368222554424674  -2.694399528648736  -3.0538898079700485 
C  -3.3101544432602585  -3.1961573187854975  -1.1619874135498987 
H  -3.9960123560788676  -3.811990145619169  -1.3868663427944008 
C  -2.9974710358883443  -2.9701089012107795  0.12423560353005347 
H  -3.438659168087169  -3.468581175155742  0.8017084178296768 
C  -2.0389854250767776  -2.015940632791841  0.4912562833419403 
H  -1.8619130127668426  -1.8492165108145995  1.4101568590026907 
