117

Pd  0.0  0.0  0.0 
Cl  -0.11984  7.03059  0.68436 
N  1.98103  -0.02759  0.0 
N  2.51592  1.22238  0.19907 
O  0.03018  -1.8127  0.0 
O  0.38879  1.84029  0.0 
C  2.29303  -2.4287  -0.58875 
C  0.91182  -2.7186  -0.52922 
C  0.48017  -4.02282  -0.80617 
C  1.41749  -5.01051  -1.16106 
H  1.10755  -6.03083  -1.32739 
C  2.7771  -4.69955  -1.23815 
H  3.50742  -5.46543  -1.46849 
C  3.21388  -3.41521  -0.9573 
H  4.27462  -3.19529  -0.9675 
C  -0.96258  -4.37568  -0.60589 
H  -1.15855  -5.43733  -0.85701 
H  -1.60351  -3.72107  -1.23062 
H  -1.22271  -4.21962  0.46469 
C  2.86504  -1.15225  -0.10741 
H  3.9563  -0.9342  -0.1357 
C  1.6647  2.17932  0.17706 
C  1.99581  3.59517  0.37443 
C  0.95618  4.54683  0.32253 
H  -0.06781  4.24346  0.12983 
C  1.21469  5.89042  0.59844 
C  2.5105  6.28584  0.94372 
H  2.70524  7.31099  1.22458 
C  3.54977  5.34755  0.97098 
H  4.54747  5.65139  1.2484 
C  3.29562  4.00391  0.68048 
H  4.10185  3.28354  0.73149 
C  1.78802  0.12104  -2.5591 
H  2.78145  0.24157  -2.10335 
C  1.81276  0.10738  -4.05096 
H  2.77536  0.14808  -4.55009 
C  0.68877  0.05819  -4.75089 
H  0.73226  0.06057  -5.83403 
C  -0.60608  0.01389  -4.06238 
H  -1.51747  0.00286  -4.65217 
C  -0.66398  -0.01441  -2.72235 
C  -1.89845  -0.0517  -1.9992 
C  -3.86717  0.02554  -1.23749 
C  -5.32671  -0.01706  -1.3196 
C  -5.92617  0.08568  -2.59663 
H  -5.32812  0.21068  -3.4947 
C  -7.30689  0.03211  -2.73427 
H  -7.74634  0.11699  -3.72309 
C  -8.11141  -0.12961  -1.60177 
C  -7.51489  -0.23756  -0.33101 
H  -8.1206  -0.36548  0.55252 
C  -6.12615  -0.18136  -0.19415 
H  -5.67424  -0.27313  0.78422 
C  -9.59591  -0.18283  -1.76098 
H  -10.09884  -0.31454  -0.7814 
H  -9.86381  -1.03504  -2.41964 
H  -9.95224  0.76278  -2.22178 
N  0.47004  0.0  -1.87067 
N  -1.83004  0.0  -0.60933 
N  -3.11934  0.00755  -0.15444 
O  -3.17009  0.04177  -2.39245 
P  0.0  0.0  2.31 
C  -0.28523  0.96707  3.87519 
H  -1.32089  1.34589  3.88589 
H  -0.13519  0.26443  4.71327 
C  0.61142  2.20622  4.0486 
C  1.60928  2.35536  5.06415 
C  2.38402  3.53383  5.1411 
H  3.15242  3.67636  5.88616 
C  2.11975  4.59577  4.30966 
H  2.67928  5.52012  4.40112 
C  1.10127  4.48665  3.39154 
H  0.86946  5.35436  2.83756 
C  0.38289  3.30256  3.21241 
H  -0.38745  3.25571  2.4531 
N  1.8093  1.35146  6.04891 
C  0.75657  1.31687  7.05713 
H  0.95267  2.11867  7.79854 
H  0.74557  0.33063  7.54823 
H  -0.24006  1.51946  6.61276 
C  3.15083  1.1187  6.53346 
H  3.19812  0.16306  7.08822 
H  3.47976  1.94095  7.20241 
H  3.85886  1.05248  5.67572 
C  -1.44864  -1.13289  2.54752 
H  -2.29719  -0.49838  2.26192 
H  -1.47319  -1.94802  1.80172 
C  -1.65088  -1.74927  3.90203 
C  -2.54016  -1.18279  4.83424 
C  -2.61253  -1.75265  6.11792 
H  -3.27525  -1.32392  6.85919 
C  -1.86502  -2.87326  6.44347 
H  -1.94501  -3.29878  7.42801 
C  -1.03884  -3.46676  5.50275 
H  -0.47317  -4.35615  5.74372 
C  -0.93663  -2.91504  4.24918 
H  -0.31042  -3.43114  3.56577 
N  -3.36014  -0.06342  4.47289 
C  -4.49732  -0.36202  3.63337 
H  -4.85913  0.54966  3.11617 
H  -5.31447  -0.78373  4.25763 
H  -4.26683  -1.13574  2.85909 
C  -3.59482  0.96679  5.48015 
H  -4.31971  0.59612  6.22479 
H  -3.99361  1.87561  4.99275 
H  -2.63785  1.22643  5.97518 
C  1.32905  -1.26504  2.7509 
C  2.31978  -1.01233  3.72353 
H  2.30385  -0.10741  4.27003 
C  3.32982  -1.95817  4.02286 
H  4.05503  -1.77521  4.80246 
C  3.41487  -3.14524  3.29261 
H  4.19998  -3.87269  3.44442 
C  2.42126  -3.43554  2.39188 
H  2.41402  -4.36062  1.82829 
C  1.38179  -2.54515  2.21986 
H  0.58805  -2.92871  1.68657 
