84

Ni  0.0  0.0  0.0 
P  1.3307732282398832  1.5195863302228003  -2.9699478720903607e-18 
N  2.6513156073550217  1.0219936926994462  -0.9778991573999551 
N  1.3307732282398832  -1.5195863302228012  -5.551115123125783e-17 
N  1.0519646067698603  3.009982275458724  -0.6709726812757077 
N  1.9361673344374712  1.6920390134221661  1.5041791443304284 
C  3.59561513539966  1.8190164290269168  -1.5652054310866572 
H  3.5578898386166653  2.76758998245488  -1.616031366588965 
C  4.596518002715972  1.0461695057278597  -2.0619207352048083 
H  5.369540607464559  1.352446898952213  -2.5227303932497023 
C  4.279696365891645  -0.27424898915673923  -1.7744827091772066 
H  4.802326723232023  -1.0325441561256672  -2.0023840021481982 
C  3.0952725261805574  -0.2963177024196977  -1.1098103765056762 
C  2.488220396505816  -1.4306720893450289  -0.5309987951420749 
H  3.0054146072390338  -2.2277688622690164  -0.5358074309381202 
C  1.055430262393286  -2.7665760486168667  0.6740316041390797 
C  1.434717943262898  -3.959040677944188  0.08643472451512257 
H  1.8057371228890735  -3.9646264250854886  -0.7886632001644058 
C  1.2696120699706614  -5.141704021419055  0.7804470922761528 
C  0.724018015443433  -5.101456801643766  2.0398821676035555 
H  0.6225007819147552  -5.912597863842767  2.525366553049026 
C  0.32031038341948403  -3.914889843163933  2.622845100292718 
C  0.48722945659459804  -2.745103023787  1.9210992059531993 
H  0.20756066349344438  -1.9211309301341042  2.3008623098042875 
C  1.7058537336197341  -6.430112271783442  0.15089255032630644 
H  1.5552712166428069  -7.168330323426172  0.7783845851838929 
H  2.65760782351688  -6.37942136764198  -0.0712974463013531 
H  1.186271424470626  -6.586961451892251  -0.6664259486191775 
C  -0.24713858593804283  -3.89549506156197  4.005636523328675 
H  0.4086073922361291  -3.5082427230168354  4.622309190470463 
H  -0.45763932394071305  -4.810986707104759  4.286404979964558 
H  -1.0649296553999266  -3.355881043791902  4.017136894386212 
C  3.242876724478478  2.378924012477772  1.6785270380690862 
H  3.382425977176666  2.909770459932803  0.8417191059270883 
C  4.415573713466314  1.4264840515393267  1.7602077752501195 
H  4.421346237783924  0.9914465470211906  2.6373894312517017 
H  5.249768094025104  1.9250655042225138  1.6367459978268473 
H  4.333672273115923  0.7480240525941937  1.0590868699135927 
C  3.2913082867073244  3.375808105122836  2.8075687466039403 
H  2.607298965604824  4.063464810909858  2.664667089402047 
H  4.175853287381667  3.7952952953679207  2.8346508255925187 
H  3.1204734480517518  2.916146616263836  3.6557011558193224 
C  1.189883883224075  1.076767434963761  2.63730491192481 
H  0.5031612065065296  0.48107783378968283  2.220738945558163 
C  2.0586816989038836  0.17645825029281736  3.484635937833305 
H  2.5293574380107406  -0.4609644750471653  2.9066018836147336 
H  1.4981391112693991  -0.31484502096689226  4.121043223380528 
H  2.71221934243204  0.7188879652792293  3.973903679250486 
C  0.4210395069606925  2.074866091706496  3.467790201678072 
H  1.0471276190983339  2.6071424875341735  3.9991445601664886 
H  -0.19307062908167505  1.5985565589049753  4.064267979782594 
H  -0.09086181884871491  2.6659209775900203  2.8775262568975997 
C  0.8112308846731286  4.169650120550242  0.2507181693386812 
H  0.8919528032203777  3.8054862793824515  1.1789880054596176 
C  -0.5692229400179794  4.761903839276471  0.15665526192732587 
H  -0.6665051753425253  5.225865083845332  -0.7016504820988865 
H  -0.7018381940609886  5.398129103857686  0.8877967442025967 
H  -1.236256763026144  4.0476346704817905  0.21910911266903982 
C  1.8766337002005669  5.253739660075421  0.12685658950735618 
H  2.76191077957746  4.838258902290881  0.07038976171688155 
H  1.8403231838397702  5.838629621457009  0.9131566082512679 
H  1.7126427568093643  5.783886430270364  -0.6806128046727293 
C  0.41846738373339665  3.123376106117057  -2.0240326827441466 
H  -0.5461038693055849  3.345317461663833  -1.8813906044191107 
C  0.4695163522959206  1.8745857759738718  -2.869637746677423 
H  1.4026891517983733  1.65384012412873  -3.071566901234741 
H  -0.017740299447163377  2.026270846716911  -3.706581941140709 
H  0.05642771504317845  1.132441099774628  -2.3811385477407176 
C  1.027249800328728  4.262063889486561  -2.8162607062635314 
H  0.820792796816823  5.113119758625883  -2.375685408153889 
H  0.6540244749966135  4.266616763424948  -3.7222803903044785 
H  1.9989003777623011  4.1465164233717156  -2.863175079833555 
Br  -1.5839191898578664  1.5839191898578664  0.0 
C  -1.308147545195113  -1.308147545195113  0.0 
C  -2.5481111008682706  -1.081588847540519  0.5874691967409313 
H  -2.7399447190521347  -0.23895174706744582  0.9782000501948406 
C  -3.514692573752534  -2.090568128666735  0.6049610958635798 
H  -4.3504064840370384  -1.9365173000894942  1.0287619599160838 
C  -3.2692344052199704  -3.300825455744854  0.016423527177974795 
H  -3.920165040096455  -3.990528127682657  0.045080339651694334 
C  -2.0939695739763726  -3.5035118821402764  -0.6007549227026172 
H  -1.9425337635726068  -4.327915038834382  -1.0474288760065322 
C  -1.0854604411866036  -2.53050399443706  -0.5998012209931928 
H  -0.24896772463074335  -2.712575304189299  -1.0129111498427692 
