99

Fe  0.0  0.0  0.0 
O  0.3634362417799955  -2.0387805316217675  9.218198976021546e-15 
O  4.542034649956702  -2.667718009333388  0.06254264395465223 
N  0.22292931787558667  2.0188263559826636  -1.074925084705244e-14 
N  1.813634440344418  0.01995417563910351  1.5275824240789387e-15 
N  2.4941815045333997  -1.1680113392470566  0.04248551359012432 
C  -0.6236355723634113  3.038064255548804  0.043537118676301875 
C  -0.2141637880377376  4.362886398192335  -0.031738230559386245 
C  1.117211678522097  4.6314424218665415  -0.19806645784171933 
C  2.0028790478137335  3.5926328725198657  -0.23823212923147355 
C  1.5454649291178197  2.2966570531686212  -0.14126156836627954 
C  2.4087243714540385  1.136328736098569  -0.15356895731521453 
C  1.6382925785184317  -2.1820170214553034  0.04781400064857346 
C  2.2464701295299836  -3.5259556887960297  0.10367521144843113 
C  1.4581440814630218  -4.667319341395165  0.13121326629411867 
C  2.0021392452108797  -5.923720531588508  0.19802031008213375 
C  3.3801319988951857  -6.056786933034809  0.23430093300500904 
C  4.193017037030427  -4.970912325601464  0.19078470950909857 
C  3.650532254419997  -3.6866079200046245  0.11735804949612792 
H  -1.6094349093911486  2.813888918304688  0.030630713787255646 
H  -0.8230519924538686  5.050900838409337  0.02244797225817521 
H  1.4472600133546518  5.507045661579263  -0.14599628135995066 
H  2.8967732682279923  3.6985922567371405  -0.3147957080812116 
H  3.4058464345945465  1.2219521967917284  -0.22412981174132346 
H  0.5177611815586637  -4.730923516394542  -0.03689732376527633 
H  1.4324979702511238  -6.690472747723075  0.11120898066624431 
H  3.746248430668314  -6.919517858762173  0.24814138745267827 
H  5.207789631564922  -5.043830777899869  0.33037801413411433 
H  4.091097285357649  -1.9055066237320202  0.06615330429653797 
O  5.226278609296751  -0.4122205087115833  -5.749508677956156 
O  -7.519812830346693  -0.03274180630316489  1.7024063850775533 
N  0.48998426492837976  -1.7523332059916974e-17  -1.8816042743155625 
N  0.9813643738234743  -0.7770774091206168  -4.100917972019596 
N  2.95674899797819  -0.7266321601306159  -5.532978502691233 
N  4.289794123696907  -1.5068453461562992  -3.9396586832107547 
N  2.396722345245771  -1.2317034757877752  -2.444126007940171 
N  -1.849984264928379  5.67120296326323e-17  -0.5983957256844376 
N  -3.2676954056818683  -1.1004766186932713  0.8866409180024858 
N  -5.5020495790937405  -1.1259505647172288  1.8317072838366573 
N  -6.334281154468559  -0.7098308344456032  -0.15859989472345193 
N  -4.095874457771971  -0.6981497471941978  -1.1400751070362904 
C  -0.4761060125540001  0.9610206598142008  -2.3114980253335524 
C  -0.22005618391398907  1.9223774241193736  -3.287052420012867 
H  0.6053835373131384  1.9446921019329788  -3.710714551639682 
C  -1.1983102798743128  2.844600955816685  -3.6241228745481355 
H  -1.0432332932124344  3.458740426027049  -4.305334126171004 
C  -2.4125917690778023  2.853752617566493  -2.945410945917871 
H  -3.063541183289403  3.4842814522543537  -3.1604285469759135 
C  -2.6567467356063488  1.9204218061377185  -1.9462676084746515 
H  -3.4640098478862207  1.9401749945778735  -1.4814175475962446 
C  -1.7017269853180994  0.9553061779340539  -1.6331235669275426 
C  1.2438559392740216  -0.6216248370347148  -2.7665159651643845 
C  2.0591264303550187  -1.5285094897927722  -4.729678282183655 
H  1.7208277647114112  -2.300927006122315  -5.230961329264946 
C  4.246745170580271  -0.8358933972167099  -5.1451432454717985 
C  2.977606957711541  -1.9619400209884  -3.5642252691906853 
H  2.95642400302565  -2.9324335410976237  -3.4225243875533184 
C  -0.3840509973896087  -0.9507227360683255  -4.599446320746458 
H  -0.9356050250080412  -1.3106547124734358  -3.9019972710094883 
H  -0.378995193459011  -1.5547010539994774  -5.344584006221878 
H  -0.7340948142064851  -0.10130190032695816  -4.877533195871395 
C  2.5002571018343507  0.07607981723271559  -6.6483930490158105 
H  1.9275740540474635  0.7753725443608585  -6.326634632555239 
H  2.0151395246649324  -0.478188799325588  -7.263500191731476 
H  3.2574828286353243  0.4619639871127172  -7.096545697236011 
C  5.4892750659190455  -2.22775119501837  -3.5225686493782407 
H  5.3691697657322655  -3.1678000161004327  -3.6744253938754308 
H  5.648538540851518  -2.0728566889675473  -2.5884107678894077 
H  6.242158701834611  -1.9170219663907822  -4.0290635725977 
C  3.0851541682218677  -1.1574399547914744  -1.168053453355959 
H  2.611611107921024  -0.5579385165228867  -0.5841226479048196 
H  3.976536453340673  -0.8343099171799282  -1.3030351949715575 
H  3.1204112443249756  -2.031913681663078  -0.7725074767666855 
C  -3.0049446805710844  -0.5492349484324186  -0.30782112301087583 
C  -4.5551543741984615  -1.7595809541882999  0.9397108654104958 
H  -4.47146044852633  -2.722080573377163  1.1068120918180684 
C  -6.553820199885384  -0.5654826512394596  1.1600603608172195 
C  -5.139367751034541  -1.456539609952733  -0.4501248385522859 
H  -5.35046195853451  -2.284466840004995  -0.9307171265656833 
C  -2.387393305196049  -1.0663515804035824  2.061829287431841 
H  -1.8593016920727132  -0.26472030541776503  2.04324442495134 
H  -1.8073085357345495  -1.8319463151689093  2.049382507188738 
H  -2.920325117160188  -1.078843657658653  2.8614273438342384 
C  -5.520376139495012  -1.2920238219243947  3.2761091601939456 
H  -6.420275250483996  -1.4390463060218168  3.568012070784165 
H  -5.169496968327605  -0.5023520805572343  3.692732224998376 
H  -4.980569179744501  -2.0473601144431557  3.5203252763881068 
C  -7.244580071194192  -0.2651994710667641  -1.1973703808791165 
H  -7.446617669330822  -1.0010719256962266  -1.7817252640253287 
H  -6.835398111933289  0.43982184566335447  -1.7010303923665935 
H  -8.057081854539529  0.05706139453698669  -0.7955147767611985 
C  -3.900529585812723  -0.9677299554251332  -2.5677621568933047 
H  -3.483494243349199  -0.2088904075718077  -2.9830673022383802 
H  -4.751497052741668  -1.132928444800536  -2.9807583788332064 
H  -3.338842796376438  -1.7378052242978261  -2.673011626456831 
Cl  1.4075829610590367  1.5166167781734954  3.685037584216155 
Sn  0.0  0.0  2.5599999999999996 
Cl  -2.007330805944438  0.4274108049391316  3.6933129573633834 
Cl  0.5997478448854012  -1.9440275831126268  3.7752354210821015 
