76

Pd  0.0  0.0  0.0 
O  0.17695940453300862  -2.1038216136249988  -7.430650605018922e-15 
C  1.2082801134076546  -2.8451050975199177  0.27465081822362636 
C  1.1409294438703808  -4.216223323544841  0.5922485788818986 
H  0.30738335416649215  -4.6246889236491295  0.6481254960373818 
C  2.2503012282688424  -4.9561138242721325  0.8188082419159303 
H  2.134781318491369  -5.85639538538816  1.0180852128872253 
C  3.5142957170591194  -4.478556100494418  0.7731950555763086 
H  4.251687331870186  -5.024300340412459  0.9301202957469363 
C  3.64748471722191  -3.1630895856028056  0.4861174729709227 
H  4.50367177343892  -2.8086313407431023  0.4026789481911236 
C  2.5131361434849717  -2.282754734244545  0.3059873734733531 
C  2.776592111765126  -0.8749737445783781  0.04864352195923651 
H  3.659340933260281  -0.6163765810081296  -0.0869157829310455 
N  1.8908577663946509  0.014236656396858054  3.0236142545348543e-15 
N  2.4245589337061766  1.3084635350524885  -0.14374272355712012 
C  1.562154863835858  2.338853465066563  -0.09016154778895201 
O  0.3321828290723407  2.08958495722814  4.379280774868439e-15 
C  2.0500081230069567  3.681366260169433  -0.19352693126531942 
C  1.1222458710240117  4.688031791542484  -0.06879970191682487 
H  0.21909215246598224  4.483496275506056  0.015714931931494293 
C  1.538818170223594  6.002044129256015  -0.06919451350909576 
H  0.924158709032649  6.687894794555667  0.05884392476817028 
C  2.860838816509231  6.289878146200927  -0.26164151786059364 
H  3.122259559265671  7.182826751063231  -0.29134276920014535 
C  3.7953146560827236  5.341795249206986  -0.4047345494204655 
H  4.68779607737094  5.564745788739266  -0.539590508049046 
C  3.3974270399466153  4.038290413869857  -0.34937897898493003 
H  4.038253613863419  3.3668255134926146  -0.41582624923309214 
C  -0.6051210284581552  -0.0784815558416702  -2.6688678315412973 
C  -0.5044424305676154  -0.2745813040365988  -4.029685129595943 
H  -1.2685748216046586  -0.34103332403680137  -4.554956857376833 
C  0.7480846531161226  -0.3697119343996728  -4.597368534149498 
C  1.8647339882034928  -0.26665044479342653  -3.7852393314919994 
H  2.720590625652388  -0.3218983757723911  -4.1446309038156945 
C  1.6822772927381777  -0.08284166119767923  -2.44135528316303 
H  2.4342823608349513  -0.012254751695386496  -1.8984219946609557 
C  -1.9152953650211764  0.04892757881478279  -1.9524067996506913 
C  -3.111204935503192  0.20853371877883237  -2.6151339224662085 
H  -3.134317861877068  0.236223510654377  -3.544117629567867 
C  -4.277205633883349  0.32580967502181196  -1.8832410809488813 
C  -4.190829662342363  0.2941334391554816  -0.5007297943324809 
H  -4.954051470349419  0.3908117905606859  0.022303730550993883 
C  -2.9854848870765496  0.11865631892991856  0.07551224944493917 
H  -2.948048029057258  0.07609091864357818  1.004177748082695 
C  -0.108106464471182  -0.7391598240532338  -6.796747207092252 
H  -0.6402136532598257  0.06026354466941614  -6.792397818672436 
H  -0.6439914079232028  -1.481296024998837  -6.508545530089001 
H  0.21448410639110782  -0.9040848368844716  -7.686336384034823 
C  -5.664639543118305  0.5091565187099286  -3.82858320315115 
H  -5.1884153181290085  1.2539003877472326  -4.202787314652729 
H  -6.59752664995613  0.5854978791322638  -4.045784636352227 
H  -5.3176071173623125  -0.308330569063579  -4.191972205182712 
N  0.4724266056612888  -2.9702119813302856e-16  -1.8719758805239324 
N  -1.8324266056612888  -1.0787931414431881e-16  -0.6080241194760677 
O  1.0077680263724629  -0.5772983194866412  -5.9051255025426626 
O  -5.5026912000307675  0.5056289363625758  -2.401808049059257 
N  1.3669454658222744e-16  6.092860565817969e-18  1.9099999999999997 
N  -0.0006678204734518189  0.04569929381398263  6.096998566820954 
C  1.1463086089744416  0.0563211928976393  2.612204298065505 
H  1.9673243261242392  0.06261220107825408  2.1341552991029777 
C  1.1913970845966084  0.10423076300968515  3.9808136625145973 
H  2.030430322985161  0.1470821297285824  4.424711494509237 
C  0.006491057325518801  0.09107585944067803  4.72841985232895 
C  -1.1888678148858212  0.10737673800648476  3.9885000877709142 
H  -2.02570135759454  0.17068167614331228  4.4340083330426125 
C  -1.138561387188103  0.030779399648137515  2.6172745479384947 
H  -1.9602823411762973  -0.0034499175995639647  2.141118305075411 
C  1.2326631165198914  -0.12355384261832641  6.832194020875825 
H  1.6977978028669167  -0.9232928829965916  6.5081586665520925 
H  1.0327198701195388  -0.2258427764534765  7.78602325728754 
H  1.8018442279371332  0.6629353806806959  6.698845364938336 
C  -1.2383183133987086  -0.03673579734863444  6.832197623612297 
H  -1.7633575961408054  0.775582827217044  6.678771342417095 
H  -1.0438544414250126  -0.12373372098154886  7.788723150600761 
H  -1.747365345166699  -0.817768523666354  6.530242892122775 
