49

Pd  0.0  0.0  0.0 
P  1.450537033308699  -1.5453291930847608  -2.222762642437697e-15 
N  1.4505370333086982  1.5453291930847608  -1.8924824499402143e-16 
C  1.565025876847198  2.2376681780645886  -1.3132703965986425 
C  1.2980045566729386  2.6367997208841323  1.005526031744949 
C  2.7233536114924783  0.8518650594907878  0.24985284412894881 
C  2.820127831798815  -0.41714147567044707  -0.49338420015920187 
C  2.1148810625167713  -2.227883114100439  1.5864375045244492 
C  1.472611235775129  -2.8770587230834344  -1.2972067485620857 
C  1.1237948795363848  -3.020036064732528  2.4047503607782734 
C  3.427329939007182  -3.0043425347658883  1.4581736956812477 
C  0.8542926445436776  -4.1875247513330685  -0.8269884284795966 
C  2.850041298331461  -3.1147522589615564  -1.9237242948190596 
H  1.6646045970570038  1.5926325769379315  -2.001625219172408 
H  0.7779465196695753  2.7491491968255195  -1.4672715425429306 
H  2.320138309381445  2.8120880259340586  -1.3019751495520193 
H  1.2210241446793484  2.255321762894333  1.8700070574113572 
H  2.0602472904629976  3.2016622006108837  0.9706304191093215 
H  0.5179907239844016  3.1386254862098926  0.8054129085626712 
H  2.7953202870509526  0.6734988471436416  1.1760708432533586 
H  3.4356844886119613  1.4191450500085843  -0.022440203634505614 
H  2.76407895033699  -0.24251459926923452  -1.4216929402480019 
H  3.651729314384346  -0.8298277743916667  -0.2921665990171971 
H  2.2984841405377776  -1.431803948246926  2.065601861958505 
H  0.9193400548752209  -2.529987673497315  -1.9818453590164022 
H  0.31659079651091315  -2.5386517691863837  2.4781807928113686 
H  0.9633717091271855  -3.8559185716963054  1.9791512525228345 
H  1.487654054502832  -3.176110787244271  3.269229164327346 
H  4.041799333385857  -2.4908859369415066  0.9417494074041265 
H  3.7902401266601835  -3.1507528245685155  2.3241044508445023 
H  3.264269552976124  -3.8311462576991935  1.0317866951159955 
H  0.004450849466457241  -4.0067741279384315  -0.4447383068545164 
H  0.7523162472094247  -4.764909300847018  -1.573328851054515 
H  1.4196865435581791  -4.5871960496970825  -0.18384853528277656 
H  3.2108131683654966  -2.29173898406108  -2.2040080744598924 
H  3.417317420432971  -3.520119806409189  -1.278120668148804 
H  2.751443897952756  -3.698344408152601  -2.6689079607975685 
Br  -1.654629867976521  1.654629867976521  0.0 
C  -1.352040782177733  -1.3199206589279684  -0.4819701001757076 
C  -1.6380700204479186  -1.599217458033982  -1.8139382277462257 
H  -1.1579680913617836  -1.159339363685303  -2.503515938957912 
C  -2.63068216563725  -2.52632649780156  -2.142289956238523 
H  -2.8368222554424674  -2.694399528648736  -3.0538898079700485 
C  -3.3101544432602585  -3.1961573187854975  -1.1619874135498987 
H  -3.9960123560788676  -3.811990145619169  -1.3868663427944008 
C  -2.9974710358883443  -2.9701089012107795  0.12423560353005347 
H  -3.438659168087169  -3.468581175155742  0.8017084178296768 
C  -2.0389854250767776  -2.015940632791841  0.4912562833419403 
H  -1.8619130127668426  -1.8492165108145995  1.4101568590026907 
