49

Fe  0.0  0.0  0.0 
O  1.24172  -1.37267  0.0 
C  2.52621  -1.35111  0.42196 
C  3.24675  -0.14808  0.50128 
C  4.5851  -0.18987  0.98068 
C  5.17484  -1.37072  1.38259 
C  4.45986  -2.54889  1.322 
C  3.14349  -2.56296  0.83015 
C  2.65719  1.14724  0.09733 
C  1.24172  1.37267  0.0 
C  0.90768  2.67072  -0.5216 
C  1.81781  3.64571  -0.88306 
C  3.15428  3.39319  -0.79347 
C  3.567  2.18268  -0.31366 
C  2.4474  -3.86582  0.7716 
C  2.53312  -4.75663  1.85696 
C  1.89897  -5.99754  1.80341 
C  1.19225  -6.37113  0.65846 
C  1.10897  -5.49705  -0.4306 
C  1.72159  -4.24213  -0.37349 
H  5.19949  0.68877  1.0843 
H  6.19438  -1.36676  1.74821 
H  4.94972  -3.46107  1.63985 
H  -0.04249  2.98836  -0.78806 
H  1.47278  4.58834  -1.29881 
H  3.86817  4.13063  -1.14046 
H  4.63949  2.03249  -0.34893 
H  3.0799  -4.48496  2.75202 
H  1.95785  -6.66935  2.65048 
H  0.71157  -7.33809  0.61367 
H  0.57525  -5.79414  -1.32194 
H  1.66273  -3.58699  -1.22919 
N  -1.32229  1.32229  0.0 
C  -2.35072  2.37352  -0.23245 
H  -2.0464  0.68966  0.37464 
H  -0.92881  1.60798  0.93098 
H  -2.94486  2.56454  0.69873 
H  -3.04981  2.06665  -1.03874 
H  -1.96526  3.37471  -0.49601 
C  -1.35057  -1.35057  0.0 
F  -1.1907  -1.48335  -2.33411 
N  -3.31371  -3.32949  -0.04045 
C  -1.74684  -1.89334  -1.16682 
F  -3.20249  -3.50259  -2.32603 
C  -2.79443  -2.94336  -1.15343 
F  -3.50044  -3.21931  2.35662 
C  -2.91774  -2.77781  1.21634 
F  -1.58386  -1.29008  2.45029 
C  -1.97222  -1.82344  1.2633 
