39

Fe  0.0  0.0  0.0 
S  0.9790304956754134  -2.701247126963948  0.8788045562028428 
O  2.1067048879093524  -2.987276343296405  1.7210530839570322 
O  -0.28592253260282186  -2.5424057121199444  1.5146664367870941 
N  1.3118161828167842  -1.3326808704637427  5.348052075445419e-16 
N  1.3118161828167845  1.3326808704637427  -6.072955460798957e-16 
C  0.8711265067364992  -3.964582083827355  -0.3304092197433414 
H  0.6592987189540244  -4.797883660080613  0.09577685621060619 
H  1.7117045472011303  -4.0435651189506645  -0.7869221418511023 
H  0.18217643818658935  -3.745499731502149  -0.9620350155629522 
C  2.562764018562457  -0.6873666778012937  0.17562196614227527 
C  2.531803339131029  0.7277443602552155  0.19031197294190366 
C  1.2168656371737556  2.661864108746139  -0.042966998396615795 
H  0.39055826335629573  3.0610798263206442  -0.19708443678820162 
C  2.344158133450027  3.455097153827775  0.14070233499835413 
H  2.267706063142953  4.3821032416169  0.11535822034299703 
C  3.5504913161590412  2.886904879306339  0.35570661744259213 
H  4.296312481838021  3.4263864768397525  0.48462463304964165 
C  3.6949246554566617  1.4868895520429173  0.3877847085147181 
C  4.911768979420396  0.8146368395925265  0.5848724855084741 
H  5.688686221019808  1.297520659914841  0.7564558931459865 
C  4.949244709272945  -0.5436696500699946  0.5220645257207491 
H  5.76106939612124  -0.982945280848944  0.6379240873781686 
C  3.790489035485919  -1.2922774204005156  0.28786694958654474 
H  3.8532761977904393  -2.2167570856419614  0.2052360788129079 
O  -1.0370443565730445  1.4589856073656102  1.5655141881617505e-15 
C  -3.1473963622385916  2.4624896259169793  0.07033588653569886 
F  -3.3206453229074695  2.937016078751622  1.2720252403985706 
F  -2.605646867350778  3.4701363583988254  -0.6974794475827785 
F  -4.392409460297301  2.217436670497108  -0.5345516771505271 
C  -2.2672375079566143  1.2251304320455014  -0.0015675665856986348 
C  -2.9090077183101677  -0.010080598071530611  -0.01770752259512659 
H  -3.8393991261803766  -0.014904394800209442  -0.030269733643589106 
C  -2.2625422332514593  -1.2239320823214381  -0.016999841794620576 
C  -3.1409450904669916  -2.474753437780284  -0.13568285306288752 
F  -4.1976517167236  -2.3113534605656634  0.6777016215072083 
F  -3.5914167052811097  -2.602586357487258  -1.3439088579502187 
F  -2.56024100096144  -3.458596834009411  0.30793850815393675 
O  -1.0370443565730447  -1.4589856073656107  -1.1102230246251565e-16 
