131

Fe  0.0  0.0  0.0 
N  1.3572499970333856  -1.420422579654821  0.009098599321724694 
N  1.4227014332778896  1.3477520239356957  -0.009077580970282937 
N  -1.3603838570625577  1.4242957830256258  0.009052770239989674 
N  -1.4195675732487172  -1.3516252273065001  -0.009073788591431433 
C  1.157217634066913  -2.7664214979747266  -0.16911968158035973 
C  2.6971441790475756  -1.2761092157155158  0.3511615379646641 
C  2.7532851889847847  1.1631595040141633  0.28372223227752497 
C  1.2891020261168  2.7046502702024027  -0.2532624447201508 
C  -1.1498058946858407  2.7607919698387957  -0.24963017159252687 
C  -2.7103338973678626  1.2883958531015522  0.21230209428889607 
C  -2.764613732492762  -1.1574362465353505  0.2114655032590281 
C  -1.2751402552828734  -2.708312542241682  -0.26100927501436 
C  2.39082626428999  -3.468873351496526  0.045093392070457795 
C  3.3173689390241177  -2.561288242605299  0.404795910848722 
C  3.463479173641217  2.4017810464610485  0.22460109608819237 
C  2.567066796259136  3.3452104090085233  -0.14927646081977305 
C  -2.39881806667886  3.454935819331363  -0.20712922542753484 
C  -3.355851167204271  2.5575157304736145  0.09808453345837866 
C  -3.4648851654215838  -2.407308581372996  0.12508508400034155 
C  -2.5520982910689014  -3.3519347476604384  -0.194415570106265 
C  3.354556740330629  -0.06326834457542006  0.5448047551435463 
C  0.08548052788964304  3.369806975501281  -0.4117922728325705 
C  -3.390792146696036  0.07407074394522122  0.3658812601731424 
C  -0.06811609620027796  -3.385360626296529  -0.38984805515688675 
C  4.78164294590718  -0.0862526704981003  1.0076332683263471 
C  5.836977456691595  -0.06982379224505729  0.09309915069772265 
C  7.141491916724365  -0.10638879087100765  0.5711195210177445 
C  7.421429205644298  -0.1677011609148576  1.924663642039207 
C  6.3574974684987815  -0.1636170295834311  2.8131978724241655 
C  5.033585315902833  -0.12634769266236898  2.3890752147716627 
C  5.574841546442808  0.012549570740442047  -1.3890962256371582 
C  8.85314724870217  -0.22513946154206096  2.406631635586081 
C  3.902649370904469  -0.09633551067415755  3.3822469256268226 
C  0.10417817979831714  4.842110137193667  -0.6917961440267029 
C  0.02775164028807591  5.278244380811282  -2.0072809959359086 
C  0.006196395758885918  6.644469547032348  -2.268246925929648 
C  0.07183561692897748  7.584692864876834  -1.2479846286620822 
C  0.16191607385933185  7.123356303960846  0.052814728979759265 
C  0.18607951197390904  5.769172881333983  0.36296199422817216 
C  -0.014632579777362816  4.293046291420956  -3.155775250406123 
C  0.06525270200523285  9.065078435694048  -1.5438752113904062 
C  0.31675747236108875  5.313679285709299  1.7885919269294825 
C  -4.875719174112741  0.08592191505702139  0.5780751408357689 
C  -5.725134126397253  -0.13699060293480952  -0.5169216848025722 
C  -7.08770006150001  -0.16592876132162293  -0.2962511487386913 
C  -7.642272847650407  0.058262000883810845  0.9461082787230769 
C  -6.794578707875583  0.2964097563416555  2.015097867990349 
C  -5.413360847236038  0.2943617343218881  1.846999304474405 
C  -5.1830454882029064  -0.2925417375515393  -1.9063027350764155 
C  -9.141286668434837  0.04365349299018875  1.1367397467297642 
C  -4.528417799727326  0.5531067382543698  3.0372715067903187 
C  -0.0963036320109856  -4.851347538475513  -0.632640221720894 
C  -0.16144358410425677  -5.337708111521314  -1.9415026742451629 
C  -0.11023926352667093  -6.709623694217557  -2.163309891236438 
C  -0.022248019548601058  -7.608689255390694  -1.1132042262219022 
C  -0.02286201266642501  -7.117917743983187  0.16827169107160675 
C  -0.052804511841796395  -5.754384188141075  0.4463455640544815 
C  -0.29171339430897403  -4.384912870421606  -3.1083466977063003 
C  0.06661915150800517  -9.088645348218384  -1.393720623622478 
C  -0.03507248032658677  -5.264959641112221  1.8576095357564235 
H  2.5286822295979086  -4.403693373993304  -0.04856128409761219 
H  4.216942328103461  -2.7429215840854257  0.6481307150240925 
H  4.386449266298137  2.538336169327936  0.40931819459205143 
H  2.750214774683639  4.264111121515018  -0.3121889175383307 
H  -2.5302986706937154  4.383181929671877  -0.3658537648207796 
H  -4.281521593106064  2.73523707432349  0.21433072286251909 
H  -4.393737808734932  -2.5448568110151637  0.26701063325808116 
H  -2.7279973919839193  -4.274131309747216  -0.34568670804280127 
H  7.861494237942727  -0.08967434531389076  -0.04951199183822346 
H  6.538660864030181  -0.18816838819676354  3.74541172391414 
H  6.401944591976578  0.013927756341100933  -1.85730292430048 
H  5.10141161549012  0.8139772922755  -1.5840878860569312 
H  5.058396730186432  -0.7343872771825948  -1.66338971257536 
H  8.864110161128343  -0.26475242690303336  3.35555068246334 
H  9.317485431961797  0.5487478907962584  2.1141376058043897 
H  9.274192155921126  -1.0004163587926307  2.0533685343506 
H  4.254654741395924  -0.13107008988918964  4.263412646789378 
H  3.335750276642044  -0.8436983780114271  3.2377562288679793 
H  3.405606587127349  0.7056870495084206  3.2700989695452485 
H  0.2073023878640755  7.755948736992854  0.7612488869448504 
H  -0.05779621726413113  6.944235826561115  -3.1687351563557726 
H  -0.06583017965840358  4.765909524521897  -3.97767860758855 
H  -0.7783762393617073  3.734455691427078  -3.063735128485329 
H  0.7705791489588614  3.7607872539695455  -3.144520113518125 
H  -0.000652300996885125  9.200735229864812  -2.4808192997834113 
H  0.8713157753150664  9.45609990635508  -1.2239641904355383 
H  -0.6757517791664431  9.471597863702414  -1.1125833339625497 
H  0.3580838583942091  6.070904165564814  2.3610374449879625 
H  1.1085852677772783  4.800085831121648  1.8844992562169847 
H  -0.43511816233889905  4.781138593734713  2.0199645729698474 
H  -7.666518619573017  -0.34701023585549573  -1.0295617080591772 
H  -7.161206535918053  0.4641218104215726  2.8749716509498917 
H  -5.901373340427449  -0.43497093881771737  -2.5119155316264474 
H  -4.592457052811859  -1.0363425852620998  -1.9332619436591798 
H  -4.71171393724361  0.4943367651454931  -2.1518579448838624 
H  -9.345333937375482  0.21580815101986736  2.048886037494874 
H  -9.48246529445909  -0.8074921702742396  0.8901010128488944 
H  -9.535866215382596  0.714711737808006  0.5918102254221635 
H  -5.067533687557357  0.6689535215921485  3.8105766873494082 
H  -4.016006433470696  1.337510145160093  2.886258471042709 
H  -3.9477863779087636  -0.18654196362693976  3.165075496564688 
H  -0.13830010218728253  -7.0388740379386014  -3.0545252975738943 
H  -0.0037309175928499916  -7.732582778224155  0.8928892915222426 
H  -0.32087877984963376  -4.8800076210037435  -3.9174210504281484 
H  0.45396669459478783  -3.797794163613872  -3.122477484269355 
H  -1.0911775705048306  -3.880009917222533  -3.0170792400319812 
H  0.12082169529405831  -9.561895173226535  -0.574051289453587 
H  0.8440079861307033  -9.262676656477948  -1.9141991760618933 
H  -0.7048818830602008  -9.365862287182647  -1.8730386520873699 
H  -0.004406178347877099  -6.007611217203981  2.4481511722659746 
H  -0.8182295463790137  -4.756268504590014  2.0252492909337017 
H  0.7320452093279226  -4.720059628767639  1.9924029954123064 
C  0.0  0.0  1.91 
N  -0.585068405729902  1.128856599246535  2.496826174394272 
C  -0.5859776763395902  1.285210599264397  3.7830117480598195 
F  -1.1219999562429055  2.371549892027159  4.314899355028581 
C  -0.15168339814589893  0.3202712929321248  4.678744824943334 
F  -0.24875542366092934  0.4989160318901654  5.987036676597629 
C  0.37595061653698203  -0.8110125315600007  4.171532024442303 
F  0.8483636653165927  -1.7855420265544817  4.965313899221864 
C  0.49557639242885754  -0.9235195473974014  2.788327157067398 
F  0.9735941858367948  -2.0847303098484975  2.25581299354388 
O  0.0  0.0  -1.79 
C  0.1803824695286545  -0.44075472513632863  -3.1047359038821236 
C  -0.17467058778620959  0.42960423599341807  -4.105793392377423 
H  -0.3419037973719573  -1.2379961425529658  -3.2140068870502745 
H  1.1108805857487505  -0.6490938907402765  -3.2189892530072313 
H  -0.011281816928896848  0.02093193132838403  -4.95710094958428 
H  0.3448353871924229  1.2331779407225771  -4.028944039554156 
H  -1.1082422403827652  0.6441306503851912  -4.027382634210282 
