23

Co  0.0  0.0  0.0 
O  1.22891564397236  -1.2883191918154442  1.5777359745368888e-16 
N  1.22891564397236  1.288319191815445  -1.5777359745368897e-16 
C  1.163170132810249  2.610556755939248  -0.036814695190706764 
H  0.3251165154451311  3.0280739468785685  -0.19393573035593628 
C  2.293928505733531  3.4077869039685362  0.15085742084447692 
H  2.2131362093069833  4.353962686914276  0.14301824964192197 
C  3.5124825375050275  2.8312417009483797  0.3455798656932994 
H  4.290220925256846  3.3688736049053176  0.43534921494382023 
C  3.607025217455441  1.4287507488002122  0.41228781732067876 
C  4.800812487335886  0.696562758438326  0.6452410122789265 
H  5.622607488477007  1.1541407513340867  0.7788495693287713 
C  4.764760898281155  -0.6738874383890797  0.6762357044431304 
H  5.567105554557072  -1.1543476953908798  0.8468893126300102 
C  3.579219070575751  -1.3842498437727768  0.46477223767296705 
H  3.5812506047517765  -2.334192084620274  0.47716949230966305 
C  2.417877489836455  -0.7014804683042102  0.23753286439389978 
C  2.4261961561359593  0.6911811029883048  0.2120299697334761 
S  -1.5132085117392116  1.5132085117392118  1.8607620766789075e-17 
H  -2.218821142720262  2.218821142720263  1.1102230246251565e-16 
P  -1.5697770542341356  -1.5697770542341356  0.0 
H  -1.3070539657595324  -2.944836315745833  0.5079718851602617 
H  -2.947316607423896  -1.3095342574375946  -0.5079718851602618 
