29

Fe  0.0  0.0  0.0 
Cl  4.687911274960169  0.0010929024360927335  0.9822984405507973 
O  1.1735292561329695  -1.3516394064246569  -7.866632996089066e-16 
O  1.173529256132969  1.3516394064246573  -5.450578480542284e-17 
C  3.17095515413967  -2.5294713654758887  0.3138726305521443 
H  2.6752394743331394  -3.2128992054820396  -0.14203626637626043 
H  3.3073142059593925  -2.7879558757227247  1.2290526221107907 
H  4.023010934942407  -2.4119997682101646  -0.11398111810091364 
C  2.402520265666193  -1.2341638251081755  0.2662700251265407 
C  3.008176214521495  -0.005295380532690902  0.49566505023133417 
C  2.3890722658113916  1.2422494098788284  0.33636889017516536 
C  3.1178064972106796  2.545793684797993  0.5406402863919607 
H  2.5404866065885665  3.274805198753824  0.30610368709048036 
H  3.9001522285346635  2.564656692844971  -0.0154676829868071 
H  3.378401746189126  2.6256701144779955  1.4618003822447097 
Cl  -4.8211586102848605  -0.0010929024360923911  0.10291401893795142 
O  -1.1735292561329689  1.351639406424657  2.8276609476568623e-15 
O  -1.1735292561329693  -1.351639406424657  0.0 
C  -3.1875557302819018  2.5294713654758896  -0.1786717875459024 
H  -2.5962705801519443  3.2128992054820404  -0.5011137648694622 
H  -3.5412664138743906  2.7879558757227256  0.6763352067383606 
H  -3.910794623029987  2.4119997682101655  -0.7999474009835865 
C  -2.4304305295346618  1.2341638251081761  -0.038959167285542 
C  -3.073591587617078  0.005295380532691185  0.037100409974324046 
C  -2.4343404430605324  -1.2422494098788284  0.03231082750483488 
C  -3.1908458767678507  -2.545793684797993  0.054217723605940994 
H  -2.5739353155125726  -3.2748051987538247  -0.033685814044901195 
H  -3.815417902231602  -2.564656692844971  -0.6746380247665128 
H  -3.666549129678947  -2.6256701144779964  0.8849717312107214 
