21

Fe  0.0  0.0  0.0 
S  1.558968926887255  -1.310006062963069  1.7200037656047045e-15 
N  1.5589689268872553  1.310006062963069  -3.8247407811216616e-16 
N  3.7126488531407924  0.24631122261385752  -0.01598849171050775 
C  2.3931623263844295  0.19624455356986203  -0.02367577727404614 
C  2.1678301438471794  2.4597938063824394  -0.04743219966099014 
C  3.5382800416678704  2.643262877095263  -0.033402671690610404 
C  4.266398776760135  1.4498229425778946  -0.028709026321307313 
H  1.6168059426944161  3.2591689120452307  -0.08085225637195398 
H  3.9806740222653483  3.532442395368102  -0.014594157256558377 
H  5.2502785034513595  1.507324153549102  -0.007646639398422393 
S  -1.5589689268872498  1.3100060629630694  8.116188096649168e-15 
N  -1.5589689268872549  -1.3100060629630694  -7.327471962526033e-15 
N  -3.71264885314077  -0.2463112226138584  -0.01598849171050824 
C  -2.39316232638443  -0.19624455356986226  -0.023675777274046374 
C  -2.1678301438471794  -2.45979380638244  -0.047432199660998695 
C  -3.5382800416678704  -2.643262877095264  -0.03340267169062384 
C  -4.266398776760106  -1.4498229425778955  -0.02870902632131832 
H  -1.6168059426944157  -3.2591689120452303  -0.0808522563719712 
H  -3.98067402226532  -3.5324423953681032  -0.014594157256576056 
H  -5.250278503451318  -1.5073241535491029  -0.0076466393984306325 
