74

Ni  0.0  0.0  0.0 
P  1.3497717084751781  -1.5027362825858712  2.8820293971805663e-15 
P  2.8629816738001304  0.991419710340871  -0.26533718885396823 
N  1.3497717084751777  1.5027362825858703  -2.950544203056535e-16 
C  1.0425729339057028  -2.6222497258262805  1.392041390658721 
C  0.8985373152550701  -2.0772169216734344  2.675537468937599 
H  1.00103229922808  -1.1415069862079936  2.802689130081415 
C  0.6099419168854185  -2.8851934702336894  3.7562816259963165 
H  0.5157496289692085  -2.5093639540739057  4.623795457402025 
C  0.4590238301345142  -4.247308312817877  3.5659116265129294 
H  0.2480857462447228  -4.805161656557915  4.305189674099196 
C  0.611128428376141  -4.801524305105541  2.3179793025921125 
H  0.5217531480035936  -5.740644366525471  2.2025615418403373 
C  0.8970746555464275  -3.990000018288225  1.2182929850120683 
H  0.9919044507292218  -4.373597354480884  0.3542926356999345 
C  1.747671191884467  -2.5048633240709077  -1.4480353634587557 
C  2.9000948213085205  -3.307317995575183  -1.445414576154326 
H  3.4393331196274746  -3.3615109840214754  -0.6651771330452746 
C  3.250762738188313  -4.0193220227614095  -2.5776282562261548 
H  4.033015043838214  -4.556872166696158  -2.573639138383619 
C  2.467221413593365  -3.95229924826189  -3.7164289544830673 
H  2.71499185976624  -4.44037879255684  -4.492553451225801 
C  1.3241775747086195  -3.1748771393142805  -3.7246049502701153 
H  0.7831909610195361  -3.136957199095664  -4.50501929659074 
C  0.9623559575251733  -2.447692121781067  -2.5907564914300427 
H  0.17779058634385958  -1.9111224060272816  -2.601593856378896 
C  2.911931041534832  -0.649581208167988  0.4737571182892203 
H  2.980933559185188  -0.5813084971215388  1.459588391623707 
H  3.695408219155981  -1.1544500888836877  0.1374175645170044 
C  3.3398035897271576  0.8026958715100253  -1.9950002667823736 
C  2.3460729226652473  0.6947449676289709  -2.961150821143341 
H  1.4321326765199744  0.7851437765046307  -2.715979448773294 
C  2.6875416146389792  0.4573453792021073  -4.27650292146345 
H  2.007427614179716  0.35729409825394215  -4.932493948505708 
C  4.014253975280215  0.36647291103689084  -4.6410500331668585 
H  4.248562309963588  0.22638623885130027  -5.550347772399669 
C  5.003667266625428  0.4774103369391465  -3.6828229220686133 
H  5.915002212451565  0.40973793747793924  -3.9392607368839747 
C  4.680027017354792  0.6866120569235944  -2.349067918551258 
H  5.361972453440898  0.7501027878692941  -1.6903654293458956 
C  4.099593806493203  2.045311400022292  0.5019847121085653 
C  4.519840364623188  3.217149459971028  -0.15103215722599478 
H  4.175760702487162  3.4318753927506283  -1.0101782215807802 
C  5.432363279498679  4.055792942932241  0.4565109015886338 
H  5.69482921803585  4.859863653144134  0.023422776506511547 
C  5.961909539870489  3.735780056724098  1.6804641730769765 
H  6.607187409449858  4.307548007599339  2.080984561300937 
C  5.564424636872111  2.59324472973675  2.3296408735786867 
H  5.930245750854011  2.3818094042694917  3.1809344749346224 
C  4.634274686483761  1.7457443567448399  1.7524320053419096 
H  4.359909926089539  0.959600261676386  2.2094440621225 
C  1.0427425395739176  2.888669276375145  -0.09779716851782344 
C  1.3601291125945008  3.6627083233318314  -1.1994536245206269 
H  1.8061570991603886  3.2659597108779814  -1.9377007062730227 
C  1.0364022918834697  5.015584136313229  -1.242962016840467 
H  1.2791351015191599  5.537992448468387  -1.9985116700847578 
C  0.36812021324896116  5.592478835034569  -0.1961603594271806 
H  0.14532584253727432  6.515906262774676  -0.2277270202653738 
C  0.01692814542758181  4.836300010999907  0.9035311644016317 
H  -0.4602072957223795  5.237279003110964  1.6217360367634501 
C  0.35736159706294424  3.492566896680419  0.9645743662252907 
H  0.12504456405412379  2.9793169745631447  1.729875198330284 
Br  -1.5839191898578664  1.5839191898578664  0.0 
C  -1.2937473829822488  -1.2398794889499034  -0.459800567 
C  -1.601562203225019  -1.4938654694550033  -1.7919791134 
H  -1.1309417375171225  -1.0428217585005106  -2.480879663 
C  -2.60218398542082  -2.411889969420291  -2.121542410022 
H  -2.8231586547736818  -2.5626138747145775  -3.032700502 
C  -3.2683208079706407  -3.09759503004543  -1.14306436557 
H  -3.9596020908062854  -3.707191723557817  -1.368328076 
C  -2.9347449854640226  -2.896087320001541  0.14198826503 
H  -3.3668350933519986  -3.405606940434718  0.81710224434 
C  -1.9675509241539992  -1.9516175659140573  0.5112421903 
H  -1.7755298364628027  -1.8022912010877177  1.4301324877 
