52

Pd  0.0  0.0  0.0 
O  0.2925497701854889  2.0223027061674794  -9.250875493921133e-15 
O  4.446653087684408  2.7966880335282367  -0.06254264395465395 
N  0.29373687749674715  -2.0377360178813726  1.1140144671362965e-14 
N  1.8137133523177644  0.015433311713893172  -1.899677518297693e-15 
N  2.452386447053555  1.2264259001286986  -0.042485513590125035 
C  -0.5167414185695625  -3.0858977138533326  -0.04353711867630114 
C  -0.06128344739275571  -4.395622451456219  0.03173823055938704 
C  1.2786534512680667  -4.61755054435195  0.1980664578417197 
C  2.127527365486312  -3.5484644642809355  0.23823212923147347 
C  1.6251629872786226  -2.26924164090985  0.1412615683662795 
C  2.447401681011656  -1.0794928444383198  0.1535689573152141 
C  1.561630617484426  2.2099437847216943  -0.04781400064857395 
C  2.122534900075088  3.5742888513743463  -0.10367521144843207 
C  1.2948560619065146  4.687445033759923  -0.13121326629411947 
C  1.7946720693047036  5.9620660157184195  -0.19802031008213467 
C  3.1671814365970956  6.143142610271569  -0.2343009330050105 
C  4.017467764411973  5.086298767017636  -0.19078470950910026 
C  3.5201350262417934  3.783844279082072  -0.11735804949612907 
H  -1.509763839719523  -2.8962628388795766  -0.03063071378725456 
H  -0.6457893758787387  -5.104467663747981  -0.022447972258174128 
H  1.6390588419497023  -5.481101869455891  0.145996281359951 
H  3.0245749788737974  -3.6231628425065394  0.31479570808121127 
H  3.446904540016752  -1.1302650874781308  0.2241298117413227 
H  0.3528262641608264  4.7181915729001185  0.036897323765275956 
H  1.1986185379798384  6.708470953322804  -0.11120898066624502 
H  3.502965965034555  7.018125262832587  -0.24814138745267997 
H  5.029077369614576  5.194587852181836  -0.3303780141341162 
H  4.022591215682354  2.019203479439857  -0.06615330429653936 
N  0.45724545426580027  -1.3881067776819085e-15  -1.8636507329844711 
C  -0.6387119915633368  0.00025269550918335975  -2.673500856820236 
C  -1.9466048389162731  -0.014611778460446619  -1.9592062346532697 
N  -1.817245454265701  -7.723338922839567e-16  -0.6163492670155836 
H  -2.5835936332812635  0.026285114344589047  -0.05511258674296038 
O  -3.006204043291771  -0.07429903008166183  -2.5896780961036665 
C  -0.5169828883381313  -0.0630815669333978  -4.017382915123295 
H  -1.2858187486496349  -0.11849412960606813  -4.573954067625065 
C  0.7706730618670999  -0.04645258751854308  -4.5766502670622415 
H  0.8852582315354994  -0.06617651347919061  -5.518776052526578 
C  1.8547784490351775  0.0003958331147515939  -3.7588387637209437 
H  2.7280169376839707  0.020435389033872285  -4.129894013166425 
C  1.6915652451988896  0.015313760563018145  -2.408143636930962 
H  2.4549362978223797  0.03690370322398581  -1.8425471726630143 
N  0.0  0.0  1.91 
N  -0.593829955569074  0.3488042889118492  3.9898073376891263 
C  -0.9033587030380801  0.5201869524545989  2.708117922453414 
C  0.5787391128083235  -0.32639079323415665  4.028423279091743 
C  0.9340056210802345  -0.5481633179369608  2.7501973736324503 
H  -1.6857193408374118  0.9652067994313146  2.4059423638470907 
H  -1.1007194311244644  0.6455398347592087  4.736837976553324 
H  1.0576532803102847  -0.5909388990868294  4.805012159939046 
H  1.7132294163701849  -1.014244865299025  2.4726203427698272 
