82

Pd  0.0  0.0  0.0 
P  1.5306830844430195  -1.465984070513728  -2.241937259858154e-15 
N  1.5306830844430208  1.4659840705137284  -1.240201187243067e-16 
C  2.7134258826303617  0.9842149816091661  -0.12263428685356122 
C  3.928170024311562  1.533119305459024  -0.8112174143771529 
C  5.0965015000655285  1.5557216895274868  0.21183145786554078 
C  5.458234964576821  0.05459638109979741  0.3858244147647441 
C  4.395720750683436  -0.6588551331676662  -0.4520264920581981 
C  3.0401800764978315  -0.4371752278149998  0.2690092492135501 
C  4.272311391559613  0.26953119269674874  -1.6696024157806784 
C  1.22144796802109  2.8417070306501575  -0.32038433127258037 
C  1.4827430081063866  3.8382433535094176  0.639372304155895 
C  1.0266518506623048  5.128478607796437  0.35852397374207323 
C  0.3717041551396605  5.420730736327316  -0.8100886992590324 
C  0.16709463716695838  4.424726816933893  -1.7609707569864521 
C  0.5748266500621552  3.133540941812697  -1.536525169932579 
C  2.2468191721658775  3.5784023070330315  1.930097831168606 
C  1.4049021892177975  3.856133384190863  3.1778663604256905 
C  3.5277130733259945  4.4174243944756135  1.9848003974188628 
C  0.3737737567822932  2.0598840640483753  -2.591505299097682 
C  -0.9837316449529077  2.120567356445151  -3.283265035049154 
C  1.5025751884273233  2.124646991497328  -3.6277741595506057 
C  1.5752360747144438  -2.087647377319398  -1.6934060777112474 
C  2.534478465182917  -3.0459346044839473  -2.0905033159056723 
C  2.549936267922045  -3.5200598006441126  -3.405812969447599 
C  1.6182241337882415  -3.0510736678281756  -4.3022444762199745 
C  0.6596715432064257  -2.108180195925982  -3.935793876912069 
C  0.6567499932164471  -1.6472333694279293  -2.6291705885511623 
C  1.6905063196385877  -2.9273452736059675  1.0658569404889473 
C  0.49972345828298215  -3.5794281674296413  1.4257421675882762 
C  0.5172794739624846  -4.67719744908087  2.230886310320747 
C  1.7240864567081042  -5.166583070268819  2.7102631142765987 
C  2.9020106129702157  -4.538617576975707  2.352421094207166 
C  2.8910281150781265  -3.4148829620267818  1.5326985314423847 
H  3.8054104978205174  2.3332113962202623  -1.3060312631698232 
H  4.792108143297549  1.9129667445958367  1.0290847509055596 
H  5.838865812359087  2.0131949141614927  -0.17727313806701403 
H  5.34734739836214  -0.18431740182914208  1.3004209607814066 
H  6.3162885911406565  -0.11137075312338518  0.02277881942117428 
H  4.593259331026903  -1.5627904600608318  -0.664109740030399 
H  3.19642531123403  -0.46982463442364547  1.2057388862328693 
H  5.121483897778969  0.3859192650038425  -2.07243648994252 
H  3.5079031455964005  0.02215395150140904  -2.180454325870123 
H  1.1767159130356377  5.81658669525096  0.993661704603418 
H  0.05555079858325618  6.302881409729116  -0.9742432135279705 
H  -0.2648257655801183  4.645154403085465  -2.574802480965208 
H  2.4993986016993617  2.6681079888059878  1.9428090852414028 
H  1.952508038867344  3.8094059664938924  3.945178853393852 
H  0.7198392781298844  3.1882712670691533  3.2382175026309064 
H  1.0039322976063296  4.70607336311803  3.1074130550215098 
H  4.041690186541253  4.152242485054341  2.7350189402492666 
H  3.290137953026553  5.33948857797408  2.0747730806288813 
H  4.017784957586748  4.293651143012919  1.1901774236259492 
H  0.43542122781959325  1.2126071734033566  -2.1549364615776057 
H  -1.6739135857317553  2.06227466642291  -2.627880734876563 
H  -1.0640234830738406  1.4027958259323676  -3.8917313042181827 
H  -1.0623574646761056  2.949532022189531  -3.7436067162166826 
H  2.3457545866665015  2.0860581342663105  -3.1832121138442515 
H  1.445509857139796  2.947495990516313  -4.10572248602378 
H  1.429763223831635  1.3999108286905364  -4.230473680150871 
H  3.1676864784210332  -3.3686877261015593  -1.4614144474163708 
H  3.1953852710187594  -4.1586960954245304  -3.675447383776696 
H  1.6274130775349662  -3.3757738092377565  -5.191887776358538 
H  0.025909909072152626  -1.7913269883483418  -4.57273287394959 
H  0.0003656813944192816  -1.0100464662491937  -2.366642388901258 
H  -0.3306657983296426  -3.242989914163244  1.1009760298192441 
H  -0.30317665547725414  -5.111880119116085  2.476285100121847 
H  1.7401989002167073  -5.925842442445999  3.2791397660433086 
H  3.733460029614941  -4.8762573814972825  2.671869118091787 
H  3.7061663422200146  -2.994703972780234  1.2913461176409857 
Br  -1.654629867976521  1.654629867976521  0.0 
C  -1.352040782177733  -1.3199206589279684  -0.4819701001757076 
C  -1.6380700204479186  -1.599217458033982  -1.8139382277462257 
H  -1.1579680913617836  -1.159339363685303  -2.503515938957912 
C  -2.63068216563725  -2.52632649780156  -2.142289956238523 
H  -2.8368222554424674  -2.694399528648736  -3.0538898079700485 
C  -3.3101544432602585  -3.1961573187854975  -1.1619874135498987 
H  -3.9960123560788676  -3.811990145619169  -1.3868663427944008 
C  -2.9974710358883443  -2.9701089012107795  0.12423560353005347 
H  -3.438659168087169  -3.468581175155742  0.8017084178296768 
C  -2.0389854250767776  -2.015940632791841  0.4912562833419403 
H  -1.8619130127668426  -1.8492165108145995  1.4101568590026907 
