73

Pd  0.0  0.0  0.0 
N  1.9178342317595212  -0.010176513042852942  4.805184028455755e-16 
C  0.23800950382672825  -2.050055086248992  -5.126107871511464e-15 
C  -0.678899846217492  -3.0940150545013436  0.02500836836010986 
C  -0.2212879210077856  -4.407080255021748  0.009968917300481307 
C  1.0965569425382005  -4.681727641744972  0.0022127203222783525 
C  2.0469604395136085  -3.6777600227077034  0.01578043426209239 
C  1.6081214931776084  -2.3451224582263226  0.01323074568425051 
C  2.541581007243831  -1.191996097351643  0.013864350584250151 
C  3.929419171019364  -1.2027904682363646  -0.00344035182167481 
C  4.612887059030948  0.011475637356888502  -0.00932430154783805 
C  3.9109083546404557  1.2126903901870587  -0.027484317114999005 
C  2.5435999302001377  1.20482565837162  0.006775257430018812 
C  1.6083000395518727  2.3423759394634245  0.0023647539102092745 
C  2.054393486619835  3.6560451999011434  0.023946011149786423 
C  1.1311012175852182  4.696163333648076  0.02300590918465015 
C  -0.21344803305785032  4.421522569141329  0.016133277497168284 
C  -0.6750520707942111  3.1004926469232474  -0.008680971433164614 
C  0.2441562644137506  2.060231599291845  4.643854745189912e-15 
H  -1.6110745783217013  -2.9114055694880725  0.051888748000895345 
H  -0.843275904470284  -5.122150629338209  0.004207129108272569 
H  1.3815876844629036  -5.58780776964255  -0.00932018854594065 
H  2.9740381837102827  -3.8861734572140154  0.022921619912030875 
H  4.404994504800979  -2.026440188249116  -0.016043947396900533 
H  5.562574811162853  0.017814627492752866  -0.004028014668826648 
H  4.380407000664244  2.03622967666424  -0.060783341282149024 
H  2.985742154378551  3.8447499015572966  0.041558354461421726 
H  1.4264499094373018  5.598802710447  0.020155352517284373 
H  -0.8390085890705172  5.136380374877056  0.02989984351145722 
H  -1.6064459214112017  2.918411339159296  -0.031112921767997306 
N  0.5786757995893943  1.4112909310083184e-15  -1.9302415675167646 
C  1.8597297121733576  -0.1290292585111022  -2.387567505444466 
H  2.624684571066538  -0.08683870120216314  -1.8609346630108794 
C  1.842668730808826  -0.3265642441705938  -3.721285043889288 
H  2.585166476159773  -0.44314797028439223  -4.266511229021803 
N  0.5538816615865412  -0.32419535203644795  -4.122963931255206 
C  -0.2035797497666062  -0.11802664023733594  -3.0067477995916416 
C  -1.6501370333127805  -0.006864644906961872  -3.0465414701150495 
C  -2.4074701546506794  0.08965940701807737  -1.7913247913202728 
N  -3.7639055237831287  0.2484026794459454  -1.7689229426145825 
C  -4.144299567767278  0.24062699612094965  -0.4715647499591272 
H  -5.013542515185633  0.32885291990918736  -0.15150991913296763 
C  -3.024853553775618  0.08144009143642547  0.2740767196059605 
H  -2.999846537031652  0.03408812023532881  1.2021973906056664 
N  -1.9386757995893942  -1.196318837803483e-16  -0.549758432483236 
C  0.11680363123669468  -0.5765404652322363  -5.509394167232356 
H  0.8792449711741901  -0.7999676661154461  -6.049032424827003 
H  -0.3023433174314072  0.2104752189371351  -5.861020557444498 
H  -0.5078222552639178  -1.3040419796813185  -5.519103358116776 
O  -2.245189022619516  0.0005205034310982048  -4.115769626125807 
C  -4.690908821679059  0.4958141552631583  -2.8939411590555766 
H  -5.591442768282408  0.5303916157054749  -2.5637632975257865 
H  -4.612298362777355  -0.21424931741695058  -3.534934412153269 
H  -4.469129542909331  1.3302856005311248  -3.313004792100471 
N  0.0  0.0  1.91 
C  0.3900411923085597  0.1668987691714594  5.6172115463177406 
C  -0.16919949664018344  -0.14029406053488774  4.308085827679098 
C  0.506138806540221  0.22008365852893733  3.134016891943309 
H  1.356657073987825  0.636622109250359  3.2082800443711736 
N  1.6099273779512373  0.7616213123074476  5.77157919436623 
H  2.1572166831013053  0.9809162883754814  5.119452404593201 
C  -1.3949106612972324  -0.7640268574699159  4.158256328371826 
H  -1.8775959744114274  -1.050783478847845  4.9251386000405395 
C  -0.12936654928567698  -0.018329271454919915  6.866476094336969 
H  -0.9687200079872961  -0.4149041461630145  7.070961668683641 
C  0.7993845906689059  0.4822072039524149  7.795093979594337 
H  0.7077251500278259  0.4853229735079544  8.740808893784358 
C  -1.1972320713836142  -0.5835024026155392  1.7795317149940404 
H  -1.5548145027021882  -0.7333681032309491  0.9113247888575643 
C  -1.9201311992809342  -0.9709916883840557  2.89250211635245 
H  -2.7721748673124025  -1.3770096398979486  2.789504102701967 
C  1.8405896404378201  0.9560450394809593  7.090527701691868 
H  2.616464815277258  1.363492294024063  7.459970170600302 
