45

Pd  0.0  0.0  0.0 
P  1.5704412564626542  -1.4233110201217436  -1.36708486844814e-14 
N  1.570441256462654  1.423311020121744  1.3564704601237987e-14 
C  1.577636477447798  2.724285202027264  0.2324187101122586 
H  1.0694025434278087  3.053855003264288  0.9644083715304875 
C  2.291727429516189  3.6405169964585795  -0.5429246403120894 
H  2.247010861677313  4.567002256080332  -0.34365865660106265 
C  3.049908223751278  3.2080773881800297  -1.5765563244457492 
H  3.513728337389699  3.8280457629941096  -2.126845917673459 
C  3.9599142239277794  1.2618345285111459  -2.8387764442468493 
H  4.449495641622766  1.832053903283209  -3.418788961424113 
C  4.0536724171110095  -0.0792422586528633  -2.9875393164323256 
H  4.609943511006613  -0.43810836225142946  -3.66806124097562 
C  3.342344056624367  -0.9419845072830872  -2.148017335781505 
H  3.420016435780537  -1.8820317148748278  -2.2593872554869234 
C  2.5291302900162127  -0.4336753676980493  -1.1659672003946557 
C  2.4010592884081956  0.955409373478819  -1.0087569896044206 
C  3.137200852464774  1.833097926675827  -1.8271990530733695 
C  2.6825856934083188  -2.556106064357513  0.8211191382045631 
C  3.7047068763223003  -2.0157502397155422  1.6268996419485788 
H  3.8392161847196338  -1.0760505036130597  1.664145741390091 
C  4.5087688781331305  -2.8689998688064295  2.3626987705836138 
H  5.200562671805383  -2.5045343003774563  2.901031833348852 
C  4.329245081147667  -4.21497866256026  2.3308594382899543 
H  4.8815982507332905  -4.782463350433273  2.8532698086678328 
C  3.3299895238576394  -4.756195507726048  1.526887748655407 
H  3.210550945738613  -5.6974965312264505  1.4900007697332829 
C  2.506274898042746  -3.9162935375313985  0.7757343251247599 
H  1.8208478093606701  -4.2863178909962825  0.23177054513227485 
C  0.46197985346773685  -2.4471514101690435  -0.9972136550301153 
H  0.9916287710946257  -3.0348225995120197  -1.5761459025969824 
H  -0.10543584902120395  -1.8696527760828818  -1.551901277208289 
H  -0.1018113022136442  -2.9895343321630667  -0.4077917444222497 
Br  -1.654629867976521  1.654629867976521  0.0 
C  -1.35204078  -1.31992066  -0.4819701 
C  -1.63807002  -1.59921746  -1.81393823 
H  -1.15796809  -1.15933936  -2.50351594 
C  -2.63068217  -2.5263265  -2.14228996 
H  -2.83682226  -2.69439953  -3.05388981 
C  -3.31015444  -3.19615732  -1.16198741 
H  -3.99601236  -3.81199015  -1.38686634 
C  -2.99747104  -2.9701089  0.1242356 
H  -3.43865917  -3.46858118  0.80170842 
C  -2.03898543  -2.01594063  0.49125628 
H  -1.86191301  -1.84921651  1.41015686 
