46

Ni  0.0  0.0  0.0 
P  1.417200139359293  -1.4393205914597345  1.549434997485429e-15 
N  1.4172001393592932  1.4393205914597345  4.577866939722741e-17 
N  2.8119442880372567  -0.4909846556723634  -0.04269253591576334 
C  1.4016604568517887  2.7872355323780753  -0.027677072039335875 
H  0.5683154168666312  3.2414985602813284  -0.01903960642034834 
C  2.5820469392723497  3.529841398883462  -0.06784383878282751 
H  2.5314115843434815  4.478154052852869  -0.07993065609443144 
C  3.829021731530756  2.9195659152893856  -0.08972674526649266 
H  4.6282367960216915  3.433039629474538  -0.09579267731903351 
C  3.866363334091646  1.5239688975584023  -0.10324039830961633 
C  4.860629830513325  0.47351488198247216  -0.09909971554046665 
H  5.8026631630936265  0.594558126992474  -0.11948483621956311 
C  4.209546210375764  -0.717006104215713  -0.06123415057347778 
H  4.627905171764333  -1.5704737731206402  -0.04868036389909778 
C  2.6274009840925614  0.8740967977982241  -0.065350963924038 
N  1.388429685634228  -2.4757460958618456  -1.3068170204039031 
C  2.1282694214666984  -3.649603567244562  -1.4987386506656506 
H  2.6707879718079295  -4.081636561623769  -0.8492206722359547 
C  1.9321597620887694  -4.059184072448147  -2.7787624399976623 
H  2.304683614735919  -4.835626330435021  -3.180887805053373 
C  1.0694405120888915  -3.1210287559661234  -3.4111229999918673 
H  0.7690750057713232  -3.160653378401462  -4.312458443604017 
C  0.7490009730191199  -2.1607807311683316  -2.5093221058513104 
H  0.19092191158897598  -1.4088571802779832  -2.6660193132601 
N  1.7186594870681284  -2.471319274597837  1.2826990292661071 
C  1.0120516439550717  -3.65460386741584  1.5330665360449764 
H  0.579609464982151  -4.191783040414304  0.8792083878646146 
C  1.049250001468415  -3.9037406560699415  2.8661750210294055 
H  0.6660080625666497  -4.653613656153533  3.3059927673885725 
C  1.7657347678370023  -2.8375849996406153  3.4919129180961597 
H  1.9384913850311263  -2.7491939276620148  4.422645892482527 
C  2.1551586237048754  -1.974476313242895  2.5212813783521386 
H  2.6414039298260543  -1.1701497915012065  2.6563768952949056 
Br  -1.5839191898578664  1.5839191898578664  0.0 
C  -1.29374738  -1.23987949  -0.45980057 
C  -1.6015622  -1.49386547  -1.79197911 
H  -1.13094174  -1.04282176  -2.48087966 
C  -2.60218399  -2.41188997  -2.12154241 
H  -2.82315865  -2.56261387  -3.0327005 
C  -3.26832081  -3.09759503  -1.14306437 
H  -3.95960209  -3.70719172  -1.36832808 
C  -2.93474499  -2.89608732  0.14198827 
H  -3.36683509  -3.40560694  0.81710224 
C  -1.96755092  -1.95161757  0.51124219 
H  -1.77552984  -1.8022912  1.43013249 
