80

Ni  0.0  0.0  0.0 
P  1.341275183360968  1.5103247606061414  4.759109566387065e-17 
N  1.3412751833609682  -1.5103247606061418  -1.1102230246251565e-16 
N  1.1149678714399298  -2.7021435249873784  0.6222843509520894 
C  2.3918460465045914  1.0677182679921184  -1.406208293322734 
C  2.7895283141438894  -0.27819404373094847  -1.580745003379802 
C  3.673167649481204  -0.5868142406301458  -2.621228020593705 
H  3.9799906432172847  -1.4805549480646616  -2.725603967963222 
C  4.104256963459992  0.38603735945241846  -3.495799851600233 
H  4.677160894935893  0.1502168297955646  -4.215905158546248 
C  3.7145599884273173  1.700417456222664  -3.3379129019665323 
H  4.013767227723868  2.3663380292233733  -3.947345292315898 
C  2.8780657209032388  2.0422701348431143  -2.275805945714302 
H  2.6379159669004464  2.951834571467113  -2.1435870692961863 
C  2.4101973102211725  -1.391496281009492  -0.7197052029445329 
H  3.0211828703149455  -2.117755168243641  -0.6817653285334768 
C  0.7674677689368842  3.1903427714223525  -0.3637925706843076 
C  -0.0877409056130698  3.3884738044327007  -1.4511626809654388 
H  -0.39676432216400515  2.6455658224767578  -1.9555386006616091 
C  -0.4819912327621525  4.671771874194954  -1.7888579188461766 
H  -1.0680064750861145  4.807763212188757  -2.5242175259464483 
C  -0.030416365878342067  5.749420438565171  -1.0688606957197875 
H  -0.2879114853581075  6.627497306263319  -1.3257606331614231 
C  0.7892554646047757  5.575312742089039  0.02225534776057919 
H  1.073136399128367  6.32599316167309  0.5298335808115416 
C  1.205136787624303  4.277924341852788  0.3798559267533424 
H  1.7804157729763235  4.148088415094028  1.1252087164677556 
C  2.4530612019730755  1.6833433635025985  1.41043151973801 
C  1.908382259300729  1.9866911479990463  2.6578946178096383 
H  0.963825341053653  2.0235664654490804  2.7576267548296416 
C  2.710443890213178  2.2322712541287646  3.7425523941111933 
H  2.325884861330267  2.4482689842256176  4.583870011838046 
C  4.083649561701046  2.162767788557644  3.6015544080718254 
H  4.6471790713309105  2.3631003944261795  4.3392111024780355 
C  4.634742089528352  1.8010737051071652  2.387138175567568 
H  5.577344326783811  1.711063404974471  2.3092661125989866 
C  3.8318507703661626  1.5695776857611818  1.287316952531306 
H  4.220402429555488  1.3349913012687455  0.45214919911167184 
C  1.7712047649660896  -3.964425747146589  0.22103821552403236 
H  2.742105487608211  -3.93131578212163  0.45994951075525387 
C  1.0430092606146562  -4.945959297854618  1.1430516461620401 
H  0.18123092303485944  -5.23067025950728  0.7457207070281241 
H  1.5977730388328308  -5.7483979399342235  1.3135104859871878 
C  0.8177999237225995  -4.159538959010861  2.4233308716552746 
H  1.6272625550338904  -4.180851597086846  2.99166401336784 
H  0.05922112972029381  -4.537239275445492  2.9354664047470487 
C  0.5092648825453825  -2.733045047770644  1.9793013461050388 
H  -0.48139127062489107  -2.637290734677106  1.8851135140359667 
C  1.6111212430730504  -4.317127615575345  -1.2752531424758873 
H  2.2104761970870097  -3.6998855400194466  -1.787203158847002 
C  2.117524974440873  -5.733728333384763  -1.5192494276086586 
H  1.4584560654708687  -6.3786571794225395  -1.1858682392109334 
H  2.9675822133965752  -5.8635050410918765  -1.0501884543485365 
H  2.251034842929454  -5.8720970474857825  -2.4812159779492626 
C  0.20894991953779973  -4.119945183182143  -1.8134751299596399 
H  0.17873065396554644  -4.393548116655973  -2.7548432199132002 
H  -0.039723112347414435  -3.1753163376433715  -1.7396834814545148 
H  -0.41937342007913014  -4.664761428311939  -1.295533308964942 
C  1.004716799599611  -1.6687341015905144  2.936306527767326 
H  0.7228033891806613  -0.7816236535950213  2.5715253987554316 
C  2.518557925242427  -1.633361156384638  3.1016805011125994 
H  2.8190205977708365  -2.459727112603951  3.5369799369252712 
H  2.768650697191152  -0.8639855092995378  3.6552455642184647 
H  2.9415962347527533  -1.5557266018448952  2.222117408078291 
C  0.3265962595365195  -1.8443605641359235  4.288073752106762 
H  -0.6454639924810599  -1.7789993301981442  4.176865544020941 
H  0.6332106926921961  -1.1432112533247822  4.901323728323369 
H  0.553910397153444  -2.723085239527836  4.6571208191549145 
Br  -1.5839191898578664  1.5839191898578664  0.0 
C  -1.29374738  -1.23987949  -0.45980057 
C  -1.6015622  -1.49386547  -1.79197911 
H  -1.13094174  -1.04282176  -2.48087966 
C  -2.60218399  -2.41188997  -2.12154241 
H  -2.82315865  -2.56261387  -3.0327005 
C  -3.26832081  -3.09759503  -1.14306437 
H  -3.95960209  -3.70719172  -1.36832808 
C  -2.93474499  -2.89608732  0.14198827 
H  -3.36683509  -3.40560694  0.81710224 
C  -1.96755092  -1.95161757  0.51124219 
H  -1.77552984  -1.8022912  1.43013249 
