56

Fe  0.0  0.0  0.0 
O  2.94436  -3.61532  0.06755 
O  1.33158  2.2113  -0.9568 
O  4.99815  -3.46997  0.06576 
N  1.36321  1.28006  0.0 
N  3.93114  -2.92327  0.0781 
N  1.36321  -1.28006  0.0 
H  1.2757  -2.21724  -0.31538 
C  2.64325  -0.73137  0.11038 
N  3.96189  2.78936  0.08564 
H  4.89051  3.24062  0.06901 
H  3.14106  3.40698  0.06247 
C  2.64213  0.66017  0.12456 
C  3.8711  1.36855  0.12606 
C  5.05298  -0.756  0.15414 
H  6.00669  -1.26235  0.16171 
C  3.85461  -1.49611  0.11794 
C  5.06102  0.6361  0.15559 
H  6.00993  1.15413  0.16482 
Si  -2.40713  0.0286  -0.06621 
O  -1.32736  1.2604  0.0 
N  -1.32736  -1.2604  0.0 
C  -1.50308  2.58327  -0.11422 
C  -0.52093  3.52528  0.6643 
C  -2.88303  3.02436  0.48641 
C  -1.54804  2.99886  -1.60837 
C  -3.64342  0.06948  1.33009 
C  -3.37942  0.0267  -1.67515 
C  -1.66166  -2.6978  0.26992 
C  -0.59212  -3.67272  -0.26323 
C  -1.80264  -2.9297  1.77402 
C  -2.94806  -3.10868  -0.47416 
H  -0.90629  4.57137  0.60636 
H  0.4654  3.75422  0.25739 
H  -0.43981  3.24989  1.73315 
H  -3.74976  2.59462  -0.05117 
H  -3.03474  4.12502  0.40007 
H  -2.9423  2.77318  1.56729 
H  -1.69833  4.09685  -1.71279 
H  -0.62963  2.72576  -2.15452 
H  -2.39771  2.52189  -2.13615 
H  -4.41335  0.8356  1.11502 
H  -3.1202  0.30302  2.27673 
H  -4.17658  -0.89422  1.39995 
H  -4.04443  -0.85517  -1.71501 
H  -4.02702  0.92639  -1.72962 
H  -2.69193  0.01474  -2.54447 
H  -0.33773  -3.4244  -1.32327 
H  0.27575  -3.72684  0.41626 
H  -0.92659  -4.72687  -0.23045 
H  -0.85308  -2.65265  2.28231 
H  -2.61558  -2.31633  2.19522 
H  -2.02074  -3.99975  1.97682 
H  -3.82467  -2.53487  -0.13234 
H  -2.81374  -2.96573  -1.57068 
H  -3.17104  -4.18336  -0.29579 
