90

Fe  0.0  0.0  0.0 
S  0.027521062726302836  2.169561207894774  1.9547514303700525e-15 
P  2.8927548023767766  -1.3384853922159556  0.15252855018028633 
N  2.0777225471892873  0.02460011661461492  6.477914260842276e-15 
C  2.6516751270157934  1.3320572413953287  -0.009834783711149231 
C  4.0345304948211345  1.5345630722180594  0.01480502584059196 
H  4.624737083475963  0.7902335725872878  0.056294165236759064 
C  4.541557972832222  2.814884752292376  -0.0209434296980334 
H  5.481487860713126  2.9482891122072585  -0.009944219549426923 
C  3.690077724458921  3.9131800269111587  -0.07433487452016158 
H  4.046390936337913  4.7927886751044175  -0.11257452755336142 
C  2.33623861576471  3.7131888792335594  -0.07173898918678562 
H  1.7607524507789738  4.469682932601165  -0.10261197299883464 
C  1.762604915203129  2.418089179885905  -0.027057938061733105 
C  1.6315717181507776  -2.6137471172793276  0.059643617868383306 
C  0.29475639008440957  -2.19416132450939  -8.432665691212329e-15 
C  -0.6200256084318461  -3.226343073781439  -0.015512306736702525 
H  -1.5434115759059963  -3.010555733566347  -0.05043964380559513 
C  -0.25895870299769363  -4.565119089888378  0.017946600852149747 
H  -0.936476090254496  -5.232053795100022  0.0011689684514729647 
C  1.0650809463432098  -4.947275679472112  0.0743257460296693 
H  1.304529259109594  -5.866222872373313  0.11566292266684688 
C  2.0372643678695104  -3.961536626871573  0.06846698441918174 
H  2.958258682107977  -4.191099541447542  0.07010448000710226 
C  4.083049339709088  -1.6579110383959546  -1.1793122777565017 
C  3.509491032622984  -1.8535620990702284  -2.4417938581486887 
H  2.5641691432512155  -1.8425789911665864  -2.5367440388508102 
C  4.309723613041022  -2.0604638687645362  -3.553845657722275 
H  3.9216215406780863  -2.1899584390906957  -4.410128267427528 
C  5.692574418431227  -2.0762346657900315  -3.3915303103492076 
H  6.25401355089618  -2.2441347543505237  -4.138068186681267 
C  6.2483370493388035  -1.8492749447606733  -2.151128849886925 
H  7.192552366272995  -1.8323706826840465  -2.0517616460895622 
C  5.442084820134877  -1.6493187662648914  -1.059313961920536 
H  5.835360997408875  -1.5012275567122257  -0.2087061780142405 
C  3.751042475691748  -1.459722168552143  1.7443772156944362 
C  4.63233186972629  -2.49709920310753  2.035543391853865 
H  4.835099829358381  -3.1503336621645524  1.3771878753985711 
C  5.2089876020948225  -2.5692060921801088  3.285245445494965 
H  5.793935757840605  -3.2866963576271155  3.4948264181007507 
C  4.936536706762713  -1.5960253951349135  4.240926025255463 
H  5.35226203357316  -1.6346288775854705  5.092793834126674 
C  4.070344893094472  -0.5840452120854452  3.946327211528582 
H  3.8785672507646654  0.07629221257305198  4.6023912644211356 
C  3.472644455970257  -0.507518678708664  2.7133151892226963 
H  2.866034005377661  0.19871469767403147  2.5244708371362616 
C  -2.2670135920111005  -1.126905408785839  -1.294300836404524 
C  -1.3380462235885595  -1.0068851375462449  -2.3316650650617943 
C  -1.5033684435224715  -1.7207195121724188  -3.5144725004451707 
H  -0.8714465915091247  -1.6287973134471296  -4.218857105848739 
C  -2.5887610362607534  -2.5630554772872074  -3.6631623504788284 
H  -2.709595448185693  -3.0437359583188854  -4.472899783261789 
C  -3.5039094107985855  -2.7058461859135123  -2.6262013453726705 
H  -4.243230908741857  -3.2947915211861387  -2.727649729980554 
C  -3.3461766103310695  -1.9963768270250508  -1.4449930815787275 
H  -3.9733399158052807  -2.103686682614165  -0.7387682992607023 
C  -0.22151405042927308  1.3632996265951793  -3.2509627916619377 
H  -0.27295757134554616  1.0249282359529521  -4.168823704954675 
H  0.4937687520602458  2.029594511483726  -3.188310905544188 
H  -1.0761253945236202  1.7780850201663825  -3.0078811843255595 
C  -3.2947959144657117  1.3326296743745651  -0.27195787420783346 
C  -3.451239669497226  2.3672590378671323  0.6413111177713282 
H  -3.0351158817903667  2.311493626794798  1.4932327821469054 
C  -4.211500178742366  3.4822029242578054  0.316341798785031 
H  -4.315418733528885  4.18554940161792  0.946670067829193 
C  -4.8179080045751705  3.569745955334386  -0.9205381980128229 
H  -5.324847518295831  4.341108488176229  -1.148789490137312 
C  -4.6891927707555805  2.540275363962331  -1.8233359827259117 
H  -5.122302088698456  2.595737986719371  -2.6668958242238117 
C  -3.9310654176039996  1.4196919682026536  -1.5116197984313535 
H  -3.8450867081157942  0.7133815886058406  -2.1401655876850545 
C  -2.8646771895773755  -0.8592275346399588  1.5536184478865502 
C  -2.04825985402184  -1.5617507736052925  2.4433174548086063 
H  -1.1073962407418114  -1.5799972761792265  2.311403936360083 
C  -2.6124358970445587  -2.233660867790917  3.5217550597773375 
H  -2.0565595750829377  -2.709461319212319  4.127736235318014 
C  -3.984499083413846  -2.2096862193678604  3.7150572295612996 
H  -4.363760426567885  -2.6660762192074055  4.456605516347439 
C  -4.79832910494578  -1.5330672414386104  2.843971794739131 
H  -5.739133443911814  -1.530755251818886  2.9784519809626975 
C  -4.244936815561453  -0.8446667184101049  1.7552547727613943 
H  -4.809091329078914  -0.36913320697336693  1.1562971495704524 
P  -2.1256370585139788  8.326672684688674e-15  0.1256370585139761 
S  0.12563705851397788  2.220446049250313e-16  -2.125637058513977 
N  0.0  0.0  1.8699999999999999 
C  0.017048107624340836  0.017119727569859126  3.011298881518054 
C  0.060477998609289596  0.03007539912538488  4.471318129728017 
H  -0.50904533427846  0.7980502440829551  4.7885418217953415 
H  0.9785771196579495  -0.16054515577781664  4.883672804708274 
H  -0.5470578916131221  -0.6847002150003825  4.828294954665988 
