80

Pd  0.0  0.0  0.0 
S  0.22989999518340443  -2.288747961721844  1.426910089681474e-14 
S  0.13855506940222007  2.2730378853488  -1.548842229442795e-14 
N  2.0315449354143755  0.015710076373044446  1.219321397613211e-15 
C  2.7324072972337135  -1.1540528845523221  -0.028978182001961304 
C  4.117017097208587  -1.143172183204521  -0.03408329235527393 
H  4.597815842124974  -1.9627902603509695  -0.050462074409622665 
C  4.796937233494635  0.05347803611509083  -0.016354477530585724 
H  5.745883733360495  0.06512178033746929  -0.022921334679688602 
C  4.0847365877173605  1.240077082264119  0.012049638943069386 
H  4.539499005817455  2.0741551729251997  0.022038721129189885 
C  2.6917308002540796  1.1919145253984382  0.026257531466605883 
C  1.920467019550107  -2.4008236000290246  -0.013071626599221602 
N  2.5722476408928454  -3.549055863251424  -0.01784460651131959 
H  3.3864926109157674  -3.5285417905852263  -0.08320997666262908 
C  2.0458897847827275  -4.878835825017083  0.05029407998677563 
C  2.6996298427748924  -5.8370896535543455  -0.7227945544336772 
H  3.410500663793221  -5.583899670265761  -1.3017477806852078 
C  2.304210027023868  -7.16159850519238  -0.6406292865650943 
H  2.7427743528583353  -7.819204538174564  -1.1681441086230089 
C  1.2748419430823088  -7.533786779291088  0.2076782793483023 
H  1.0177227146403351  -8.445837920295585  0.2745349062285146 
C  0.620883606898927  -6.5680373749988235  0.9599871471980688 
H  -0.10137902510998109  -6.819531389618575  1.5224040397377623 
C  1.0149839306701296  -5.231192470553929  0.8952443000011815 
H  0.5794560680967462  -4.573704469085465  1.4266341652105812 
C  1.881271028680809  2.4409033848767367  0.06579292776540072 
N  2.550191413009836  3.530074102097193  0.16444326065173712 
C  1.9092419996549908  4.78770859125053  0.22974572011619104 
C  2.1941479327727844  5.601548958987064  1.3239612542394905 
H  2.7458951212985543  5.277074046390145  2.0262790249452647 
C  1.674299122292833  6.885653880911638  1.3902486869222022 
H  1.8415507424485724  7.423118757392929  2.155802585811254 
C  0.9111080019997495  7.392885169562726  0.34801024792700547 
H  0.5669018544121764  8.277544000618258  0.3923057397786576 
C  0.6549335135990118  6.595108256828649  -0.7591821694066307 
H  0.14812482879211086  6.942521314221233  -1.4837569029969186 
C  1.1353243318357829  5.292016190334684  -0.8136473692529372 
H  0.9350627845228374  4.7435822567727435  -1.56343660842992 
O  -1.9256045922800937  0.0  -0.07439540771990627 
O  -0.07439540771990616  0.0  -1.9256045922800937 
O  -3.9403186843857254  0.10109028122205715  -3.0887429477546684 
C  -2.302924329492143  0.044471514084205396  -1.3593578975791667 
C  -1.3024290967429533  0.027365403557168527  -2.316303444738867 
C  -1.6337343543951839  0.01265823242747853  -3.724490611052145 
C  -0.7125630173370706  -0.06192000597641536  -4.738635844309746 
C  -1.1047713639211807  -0.09211120950962723  -6.062765896116982 
C  -2.486515414015628  -0.11870533773168986  -6.348577219147977 
C  -3.413896213266748  -0.029160363884697997  -5.373057746846589 
C  -3.0001896374418715  0.018218933791792406  -4.024372134381269 
C  -3.649664100548094  0.10928526493742056  -1.7347879133698108 
C  -4.8171543329444795  0.16143160120776773  -0.913726370687058 
C  -6.105717575000923  0.18682419995724844  -1.5094334943223053 
C  -7.225945392181706  0.17709042268114614  -0.7247261213518119 
C  -7.156086966838784  0.16486778525239051  0.6522679481862133 
C  -5.903039658332222  0.1397638074962391  1.270841535518525 
C  -4.762225059099257  0.13860325429059697  0.4798351175336548 
H  0.22887178745506537  -0.0621810350910835  -4.52888232183678 
H  -0.4458686733030112  -0.10807118451575246  -6.780279529084311 
H  -2.775037758394973  -0.21130930827316685  -7.2691530125696 
H  -4.3560407987757275  -0.0007949913826391236  -5.5876961535657586 
H  -6.196817515240152  0.2186721437079076  -2.477416200452571 
H  -8.09213250420034  0.17006636678676593  -1.148114571373339 
H  -7.96887444142003  0.15364280427517688  1.189533525871859 
H  -5.825041755284176  0.12299703751798918  2.2470877045479507 
H  -3.8882146423632444  0.11717527754827073  0.9017110391618974 
N  0.0  0.0  1.91 
C  -0.06607728724215661  -0.00227094029308883  3.377311672733814 
C  -0.7586250522957476  0.9882311336092666  4.028889208192496 
H  -1.2111214168426552  1.6582090435558308  3.531698409549292 
C  -0.7946662425281353  1.0069810044629166  5.428520393522976 
H  -1.2840098643901838  1.6843257613729414  5.881464142822414 
C  -0.1123169803078945  0.028887543111711045  6.153943666660467 
H  -0.12248957083072454  0.033650662225824135  7.1044938500271115 
C  0.5885563744045594  -0.9610669220467717  5.452138203895397 
H  1.0584590764557997  -1.6307041236373092  5.936310042038569 
C  0.6090501929727885  -0.9825262288514568  4.0931588105446535 
H  1.08418886467919  -1.665098457876485  3.6349975018193517 
H  0.8850189021489745  0.6412648732139427  1.7429422697959358 
H  0.12403300377618626  -0.7998833488473178  1.3516077523719954 
