76

Ni  0.0  0.0  0.0 
P  1.312258345372587  1.5356034758361283  -5.236727109662364e-16 
N  1.3122583453725873  -1.5356034758361283  -5.551115123125783e-16 
N  2.610337731067048  1.0433422300816493  1.0020896588446626 
C  2.498601435980736  -1.4113331951270451  0.49636328298821614 
H  3.0318255722214364  -2.198640686301946  0.4864358024294027 
C  3.11627768867488  -0.2590308606741192  1.056113188635433 
C  4.29465465199548  -0.21733590100027667  1.7680535742388366 
H  4.855309928291508  -0.9589777590195756  1.9581265749388708 
C  4.522247608057356  1.107007548986171  2.1645719380368127 
H  5.2550393519493905  1.4206351798026264  2.6830420039732488 
C  3.5078943133597993  1.8573647851682558  1.6746860618927628 
H  3.424046110340497  2.7973434565593567  1.7769652688717752 
C  1.0013791066424322  -2.838237379364401  -0.5490741592037095 
C  0.8111362333645988  -3.924058567084827  0.32179164989916753 
C  0.5425764138160893  -5.158885245871501  -0.25607533884543154 
H  0.423981437618801  -5.915033947845336  0.3056768326003553 
C  0.4440146917281126  -5.3122952919589075  -1.6156459308701923 
H  0.2673053689120737  -6.169562412485066  -1.9864882683866725 
C  0.6039496582653797  -4.216365371584337  -2.447200490779844 
H  0.5284442906580802  -4.329025181048367  -3.386361481661622 
C  0.8711122863731741  -2.958995548981743  -1.9350019459255305 
C  0.8309754308841831  -3.788617271025795  1.831407495590938 
H  0.9507994113182227  -2.8198248168475026  2.054441112877974 
C  2.008063294461358  -4.561458739331151  2.4353116570991897 
H  1.9130841197195725  -5.515940018557176  2.22881544896833 
H  2.015646420686303  -4.436504818596163  3.407159250032176 
H  2.8473053571055806  -4.226217267101677  2.0565107653551 
C  -0.48945162374008877  -4.253087963638445  2.4453195569810395 
H  -1.228881095385065  -3.7501387178512346  2.0468428040519453 
H  -0.4714973794533921  -4.097469567509274  3.4126251394617313 
H  -0.6129527431475639  -5.208017193791143  2.270617499451433 
C  1.032311930186006  -1.7561796631982785  -2.8504030382023364 
H  0.7669754618896912  -0.9475068452861901  -2.3279599674643285 
C  2.4798251005295304  -1.5758244677600812  -3.253885720805396 
H  3.033140672101828  -1.4749685127970527  -2.451136342353962 
H  2.5663266336660584  -0.7761243209944273  -3.81226112322569 
H  2.778559595164462  -2.3615022641346126  -3.7598481719806456 
C  0.13238170164780305  -1.81713722904973  -4.079817739972534 
H  0.39405744395996156  -2.5791811247649528  -4.6392850284609395 
H  0.2247018834670238  -0.9884577326666435  -4.594515910071424 
H  -0.8000589138916703  -1.923880875817493  -3.796768994405448 
C  2.055697959858202  1.9123113917159253  -1.6040472485955761 
C  3.425312523671729  2.0940947618323587  -1.7501222051728202 
H  3.9994709491585283  2.0327151632034353  -0.9957114302532918 
C  3.946125902680408  2.3660001310049914  -3.004995463498417 
H  4.881809093961906  2.492089022471308  -3.1088634422123014 
C  3.121678931156665  2.456900902067648  -4.101120730502882 
H  3.489661169287712  2.645167983738966  -4.956810410456449 
C  1.7621841125669964  2.2748605971329456  -3.960060227146402 
H  1.1947633315459827  2.336830722557534  -4.720341728184268 
C  1.2231885743992417  2.0004419880121556  -2.7157630131321904 
H  0.28647858851916075  1.8738656041613924  -2.619743476558484 
C  0.8373449146335729  3.0863006821597962  0.7772071651777822 
C  0.9492427522699451  4.286740143913606  0.10241832220796918 
H  1.281032302843734  4.3057908789896455  -0.785897687792484 
C  0.5724374848030878  5.469295757113969  0.7323388426687314 
H  0.6449264882410068  6.2972026810076915  0.27329619786390286 
C  0.09577681513316327  5.434889107981297  2.0204983780079493 
H  -0.16303773832142232  6.243492217142601  2.448699474193806 
C  -0.011753217186627918  4.231721139118765  2.702592529025624 
H  -0.3324521203449484  4.218519749359627  3.596289310278352 
C  0.34601955942530815  3.061520294124221  2.082318458400829 
H  0.2589543921366513  2.2349794422881653  2.5417064936075873 
Br  -1.5839191898578664  1.5839191898578664  0.0 
C  -1.29374738  -1.23987949  -0.45980057 
C  -1.6015622  -1.49386547  -1.79197911 
H  -1.13094174  -1.04282176  -2.48087966 
C  -2.60218399  -2.41188997  -2.12154241 
H  -2.82315865  -2.56261387  -3.0327005 
C  -3.26832081  -3.09759503  -1.14306437 
H  -3.95960209  -3.70719172  -1.36832808 
C  -2.93474499  -2.89608732  0.14198827 
H  -3.36683509  -3.40560694  0.81710224 
C  -1.96755092  -1.95161757  0.51124219 
H  -1.77552984  -1.8022912  1.43013249 
