49

Pd  0.0  0.0  0.0 
P  1.5244288619020576  1.4724865517212704  2.1238761995958508e-15 
N  1.524428861902057  -1.47248655172127  1.9984014443252818e-15 
H  1.559063330189515  -1.7692414385412607  -0.9132321669514872 
H  1.4119999897521933  -2.1240450320880284  0.5503479039382999 
C  2.8482979259946606  -0.9243858413571798  0.2864338185986316 
C  3.925448255361853  -1.765678489192847  0.5472726742966618 
H  3.7996395998740224  -2.70621758843357  0.5823326943166045 
C  5.179066488947842  -1.2218867621553495  0.756553375810979 
H  5.920824882551552  -1.7938538942255806  0.9180223367595685 
C  5.362612008940731  0.15568961885051902  0.7318378627611806 
H  6.228593732879406  0.5226302468436215  0.873091178942695 
C  4.289559131007133  0.9863313612625229  0.501706971916028 
H  4.4144543677766315  1.9274907989361711  0.5054140880615698 
C  3.017757368830365  0.4586189321801226  0.2629891260894559 
C  1.7569014013618112  2.6990492309448997  1.3532771823735588 
C  1.982789640513934  4.058855925042989  1.146933856581872 
H  1.9989302266419138  4.406920659081399  0.26239947488818394 
C  2.185197181496033  4.907803681841676  2.2309945345792315 
H  2.3345792139500254  5.833946741284803  2.0810274654432463 
C  2.1729865493889227  4.421353986146533  3.5138035047777265 
H  2.312132627355109  5.008034478399702  4.248203333887335 
C  1.957928856764474  3.0764731906750282  3.7324194346981603 
H  1.9516505115095792  2.7370016013313596  4.619954494517964 
C  1.7487277465268836  2.2184296937595036  2.662649135579535 
H  1.5995807171278895  1.294813584389808  2.8232730943598083 
C  1.8968560374979981  2.4633953062320493  -1.4975944207667091 
C  3.0132969113472763  2.228677760189955  -2.29879231066577 
H  3.638574651113676  1.5573790791632853  -2.0485498702115246 
C  3.219446380376062  2.9634076792750066  -3.454333185070676 
H  3.989959642187454  2.8026784354504426  -3.9850291371490663 
C  2.3180756677683876  3.920089479426791  -3.8344039570480826 
H  2.455566277989485  4.408541329230946  -4.637613377139717 
C  1.213497610899892  4.174308704425771  -3.0549260600390715 
H  0.5941902789283899  4.845076772796533  -3.3160433651348704 
C  1.0021974008604753  3.4488260922068394  -1.8850336288278127 
H  0.24080013304170955  3.6316263084026015  -1.3486966810823475 
Br  -1.654629867976521  1.654629867976521  0.0 
C  -1.3788582233137676  -1.3788582233137676  0.0 
C  -2.618821778986925  -1.1522995256591737  0.5874691967409313 
H  -2.8106553971707884  -0.30966242518610043  0.9782000501948407 
C  -3.5854032518711887  -2.161278806785389  0.6049610958635797 
H  -4.421117162155692  -2.007227978208148  1.0287619599160838 
C  -3.3399450833386255  -3.3715361338635086  0.016423527177974573 
H  -3.9908757182151104  -4.061238805801311  0.045080339651694 
C  -2.164680252095028  -3.57422256025893  -0.6007549227026177 
H  -2.0132444416912625  -4.3986257169530365  -1.0474288760065327 
C  -1.1561711193052586  -2.601214672555715  -0.5998012209931929 
H  -0.3196784027493984  -2.7832859823079534  -1.0129111498427692 
