66

Pd  0.0  0.0  0.0 
P  1.5118602506514947  1.4853883608336238  -2.841139025523666e-17 
N  1.5118602506514947  -1.4853883608336238  5.551115123125783e-17 
C  1.4326593433117265  -2.4461630798431884  1.209210372759302 
C  0.817369307536668  -3.7580244161649574  0.722242092334382 
C  0.6974676662000663  -3.566517711588144  -0.7613187990708092 
C  0.24998984455550977  -4.452866251616506  -1.7745685830460434 
C  0.3298561677193925  -4.02200125235071  -3.1219185089494914 
C  0.8513515326970815  -2.772695273570487  -3.4847143822595203 
C  1.210625405537325  -1.855365869403557  -2.4515069062194215 
C  1.137915373773223  -2.3121192565239737  -1.1676398824841339 
C  1.3959483040652056  2.5698957007833796  -1.4427948815523817 
C  2.11285469649638  2.291999400472839  -2.6196572994947047 
C  1.9692184229749838  3.1174066692573605  -3.7184209690645584 
C  1.1273928173801193  4.219553557685398  -3.6738810308825296 
C  0.42337430080404315  4.487256035693799  -2.543171496304266 
C  0.5462694381411513  3.6671613102198855  -1.4304406454383356 
C  1.771743890601253  2.554327078724822  1.4338776241645006 
C  2.5243016937483245  3.716938517951946  1.3251627939861825 
C  2.7763005362678648  4.496199905425313  2.492402059673352 
C  2.2642371335812186  4.090412081921886  3.704232726031229 
C  1.5538677186654775  2.9463419822704546  3.8115624117469142 
C  1.2828789496685749  2.1582432527617468  2.6903035122842107 
C  2.993069799546391  0.4909548685912195  -0.1913342409742566 
C  4.2732113509918  1.1031232778614282  -0.3310661519845099 
C  5.378497538808022  0.3174260549849648  -0.4272844298058364 
C  5.241609207269973  -1.064871456655482  -0.4294254579133731 
C  4.028428753576638  -1.716979902191159  -0.314471458254788 
C  2.8789706922546885  -0.8952794720659266  -0.16251347592405502 
C  4.045545052495979  -3.2236257760985216  -0.32432148105799924 
H  0.8879366270894901  -2.066655420523955  1.8888701324549269 
H  2.3032334857068415  -2.6053929528087068  1.5538276824644486 
H  -0.034655876247476236  -3.8990594818244366  1.1163033140398817 
H  1.3861932550600513  -4.49256610827009  0.9238518125446296 
H  -0.08799739165983067  -5.315485179289331  -1.5568058824380304 
H  0.010333145699126245  -4.596102051498898  -3.804445996173577 
H  0.9660305898575454  -2.547390448364922  -4.402887306924541 
H  1.483856883484655  -0.9674191513750235  -2.652195509286659 
H  2.6925588750398384  1.5395836218997738  -2.6604411386169886 
H  2.4509072879606166  2.930151566595926  -4.51444162449764 
H  1.0405955972639545  4.783303885263058  -4.43591603056182 
H  -0.15515224443232456  5.241429920139281  -2.5147039976910484 
H  0.04418363190087038  3.86212056305628  -0.6469160236774469 
H  2.8697360097747113  3.988709558202621  0.48085820736328516 
H  3.3016316772362044  5.2864284180152765  2.4357937544631585 
H  2.409469590101791  4.6247531006939475  4.475474691454954 
H  1.2338614833434174  2.6734400189263363  4.665079692039433 
H  0.7699777271060277  1.3635962862690496  2.7771715992770956 
H  4.352530603385928  2.0511631354039292  -0.36307700499454815 
H  6.241763106825758  0.7107610207121144  -0.4910611011791525 
H  6.0270378933258355  -1.5941307606389854  -0.5108365644497916 
H  4.572007511568005  -3.5365126528606154  0.4011774173132597 
H  4.420793276279394  -3.5248699333833375  -1.1430609684709148 
H  3.1594706302800697  -3.547745159752374  -0.24067625743693116 
Br  -1.654629867976521  1.654629867976521  0.0 
C  -1.352040782177733  -1.3199206589279684  -0.4819701001757076 
C  -1.6380700204479186  -1.599217458033982  -1.8139382277462257 
H  -1.1579680913617836  -1.159339363685303  -2.503515938957912 
C  -2.63068216563725  -2.52632649780156  -2.142289956238523 
H  -2.8368222554424674  -2.694399528648736  -3.0538898079700485 
C  -3.3101544432602585  -3.1961573187854975  -1.1619874135498987 
H  -3.9960123560788676  -3.811990145619169  -1.3868663427944008 
C  -2.9974710358883443  -2.9701089012107795  0.12423560353005347 
H  -3.438659168087169  -3.468581175155742  0.8017084178296768 
C  -2.0389854250767776  -2.015940632791841  0.4912562833419403 
H  -1.8619130127668426  -1.8492165108145995  1.4101568590026907 
