88

Pd  0.0  0.0  0.0 
P  1.2945989910006885  1.6781279607050226  2.0187268330274357e-15 
P  2.6154065422040422  -1.4273497513822995  0.8370991652206728 
C  1.1660007194814546  2.9517434030590572  1.3566975637774323 
H  0.3148476173411132  3.4463482600398625  1.1829880298770625 
C  0.9937793001719363  2.2992291189040146  2.7270753188890273 
H  0.2689784406068152  1.6408868256644378  2.6860476586372766 
H  0.7742734440881937  2.985872111561083  3.3898586845372036 
H  1.828278143102059  1.85243914069222  2.9828690962132374 
C  2.260396644494948  4.014146105205192  1.4048899676028088 
H  3.1186086759865748  3.5909721687542118  1.6165837759950779 
H  2.0444861575795796  4.675268728734979  2.094580099689006 
H  2.321214209048843  4.459170124521481  0.5341248235637696 
C  1.0634653142030293  2.7469868272520217  -1.506688155144893 
H  1.5664068946071503  3.5964590536733607  -1.343334296177988 
C  -0.40414967352229203  3.126441624449058  -1.6976109790508094 
H  -0.9374716865814472  2.3157217736050115  -1.8314219421066955 
H  -0.4920539936618855  3.708269013577237  -2.4819628195924848 
H  -0.7244741728854813  3.6006612034289973  -0.9025193956342691 
C  1.5870931442094474  2.1651920071539026  -2.8204266157792057 
H  2.4644709812993204  1.7553897744856144  -2.6693453426723 
H  1.6716416036456845  2.880551576334583  -3.484897491580836 
H  0.9617409461864882  1.4853646777047795  -3.1497063305536472 
C  3.0894503672114944  1.2421132483986979  -0.08366927731662493 
C  3.968884521433545  2.2336891585580836  -0.5469184465326732 
H  3.619488427459302  3.0774101280872226  -0.8073210292624879 
C  5.338516314171972  2.013488846869842  -0.6340777550004354 
H  5.912140719638905  2.704064864990133  -0.9454535804105346 
C  5.862542510613883  0.7948098200685703  -0.26956372910110105 
H  6.799629061968108  0.6435956779161502  -0.32025740212045317 
C  5.015060342791998  -0.2156483897377912  0.1730459312756828 
H  5.380245881985691  -1.0591954273577833  0.41427266546228225 
C  3.6302484532256627  -0.013342598433670805  0.2694513632834916 
N  1.2945989910006883  -1.6781279607050235  -1.2212453270876722e-15 
C  1.039109651155047  -2.7743572251451045  -0.8726056709708102 
C  1.0903497111825626  -2.5638517849928606  -2.257989175966712 
C  0.7762473836909372  -3.6026476371682956  -3.1290912396581487 
H  0.8136784939969692  -3.4468795008158217  -4.066447959204413 
C  0.4088134127805305  -4.861747973660099  -2.6676037754001802 
C  0.3905994592019264  -5.060723944395796  -1.29637822321525 
H  0.16382465287894088  -5.921789809952871  -0.9637235939229113 
C  0.6931646249023651  -4.0455491842515965  -0.38138677687771405 
C  1.47111928534486  -1.2084209696667223  -2.7888155941644026 
H  0.8354445137455901  -0.538913318100043  -2.462983506662428 
H  1.4564269733649362  -1.2248304036579376  -3.768799219764756 
H  2.372887747426965  -0.9793870556864527  -2.4809595936690885 
C  0.022308347439591092  -5.969929875485219  -3.622506433754987 
H  0.15244021586314194  -6.83694759050424  -3.185641387472046 
H  0.583442228835521  -5.920116147356358  -4.423985079533817 
H  -0.9191382626772313  -5.868603600623221  -3.8752334926983676 
C  0.6059852504555839  -4.344852522114449  1.0901865711465235 
H  -0.16017671769604092  -3.87101870334777  1.475104212663553 
H  1.4276841077400293  -4.049592964081798  1.533122075851007 
H  0.49266022453272074  -5.309636872838099  1.2207452747948322 
C  3.718884238412223  -2.861225526260089  0.8050715803955723 
C  4.142239070012714  -3.3485815647450234  -0.44277300861094526 
H  3.8720034646958412  -2.9096163086685323  -1.2406068143479234 
C  4.952566927020801  -4.469231136193626  -0.5080989006349151 
H  5.239771317154116  -4.79956031726937  -1.351284888669583 
C  5.347190437089051  -5.110475499077553  0.6585719451356704 
H  5.9046530063696405  -5.878655143410764  0.6068529168846887 
C  4.938107992307131  -4.643208619935294  1.8935117035967548 
H  5.211084770850247  -5.08829013486709  2.6870597950457027 
C  4.121555082023098  -3.517041420977458  1.969169318535195 
H  3.8379337568282077  -3.1943799537479167  2.8175608622577752 
C  2.261971305864993  -1.0832763353375405  2.5771243311551477 
C  3.240935520338603  -0.5028154391429729  3.381321990172574 
H  4.062910096112779  -0.21710834395902245  2.9976860917709214 
C  3.0160385502680196  -0.3418358468081266  4.741882960399488 
H  3.686966307169561  0.04661930396960656  5.29259558133106 
C  1.8163359483445922  -0.7477191292211324  5.294240026069761 
H  1.6697436235618617  -0.6500520181081371  6.227276491445914 
C  0.8256516210857507  -1.2972402304681285  4.4946454144020125 
H  -0.002799790675202418  -1.5569435815861812  4.878407368964176 
C  1.0439232781098216  -1.4689455930788236  3.1320148840708315 
H  0.36679713917550616  -1.8470507375359997  2.5828506265786335 
Br  -1.654629867976521  1.654629867976521  0.0 
C  -1.352040782177733  -1.3199206589279684  -0.4819701001757076 
C  -1.6380700204479186  -1.599217458033982  -1.8139382277462257 
H  -1.1579680913617836  -1.159339363685303  -2.503515938957912 
C  -2.63068216563725  -2.52632649780156  -2.142289956238523 
H  -2.8368222554424674  -2.694399528648736  -3.0538898079700485 
C  -3.3101544432602585  -3.1961573187854975  -1.1619874135498987 
H  -3.9960123560788676  -3.811990145619169  -1.3868663427944008 
C  -2.9974710358883443  -2.9701089012107795  0.12423560353005347 
H  -3.438659168087169  -3.468581175155742  0.8017084178296768 
C  -2.0389854250767776  -2.015940632791841  0.4912562833419403 
H  -1.8619130127668426  -1.8492165108145995  1.4101568590026907 
