118

Pd  0.0  0.0  0.0 
N  1.83548  -0.02202  0.0 
C  2.49307  -1.2629  -0.07081 
C  3.95037  -1.31432  -0.14801 
H  4.45821  -2.28344  -0.19967 
C  4.603  -0.14541  -0.14738 
C  3.86586  1.18477  -0.08099 
H  4.40063  2.12767  -0.09967 
C  2.52326  1.17686  -0.01249 
N  1.5591  -2.30328  -0.04365 
N  0.25434  -1.92836  0.0 
C  -0.48354  -3.15227  -0.02034 
H  -1.56271  -3.22326  -0.00084 
C  0.42281  -4.22459  -0.05667 
H  0.19142  -5.28003  -0.07289 
C  1.70724  -3.69689  -0.07186 
H  2.64352  -4.23179  -0.09798 
N  1.64965  2.26278  0.02712 
N  0.31018  1.95038  0.0 
C  -0.3617  3.20932  0.03346 
H  -1.43512  3.33397  0.04577 
C  0.59903  4.23266  0.08643 
H  0.41506  5.29718  0.1326 
C  1.85399  3.64092  0.07481 
H  2.81544  4.13805  0.10687 
C  6.06313  -0.13557  -0.23001 
O  6.6897  -1.18786  -0.211 
O  6.66411  1.06391  -0.31801 
C  7.96413  1.38848  -0.41555 
C  9.00542  0.44903  -0.5279 
H  8.84661  -0.61543  -0.56097 
C  10.3192  0.88227  -0.59088 
H  11.09444  0.13445  -0.66669 
C  10.62005  2.26031  -0.5431 
C  9.5751  3.19096  -0.4525 
H  9.78697  4.24681  -0.42082 
C  8.25939  2.75064  -0.39437 
H  7.45427  3.47312  -0.31737 
O  11.8891  2.7131  -0.56073 
C  12.998  1.90046  -0.67456 
H  12.97821  1.3958  -1.66637 
H  12.9831  1.13921  0.13667 
C  14.26696  2.72248  -0.52964 
H  14.26488  3.21586  0.46768 
H  14.28588  3.50437  -1.32067 
C  15.49494  1.81539  -0.65843 
H  15.46747  1.31934  -1.65467 
H  15.46397  1.02955  0.12932 
C  16.78999  2.62397  -0.53129 
H  16.78785  3.41078  -1.31652 
H  16.83096  3.11075  0.46787 
C  18.02108  1.72948  -0.73234 
H  17.93165  1.22916  -1.72071 
H  18.05273  0.94725  0.05988 
C  19.32387  2.54747  -0.70233 
H  19.2559  3.37962  -1.43689 
H  19.45828  2.97837  0.31434 
C  20.52948  1.66868  -1.07474 
H  20.38655  1.28866  -2.11122 
H  20.57489  0.80169  -0.38077 
C  21.86119  2.43705  -0.99395 
H  21.8354  3.31577  -1.67666 
H  22.00143  2.79764  0.04772 
C  23.03915  1.52561  -1.38363 
H  23.02303  0.61481  -0.74598 
H  22.91537  1.2174  -2.44583 
C  24.40239  2.21886  -1.20652 
H  24.53715  2.49306  -0.13663 
H  24.43093  3.14513  -1.82027 
C  25.54622  1.28442  -1.63895 
H  25.51841  0.36029  -1.0208 
H  25.39522  1.00433  -2.70505 
C  26.92801  1.94496  -1.50027 
H  26.95826  2.85453  -2.13926 
H  27.10304  2.24451  -0.44306 
C  28.03531  0.97409  -1.9428 
H  28.04301  0.0884  -1.26994 
H  27.83643  0.63038  -2.98081 
C  29.41515  1.62798  -1.91876 
H  29.44162  2.49518  -2.61282 
H  30.1776  0.891  -2.25163 
H  29.67322  1.96875  -0.8942 
S  -1.88054  0.25961  -1.88126 
O  -1.80862  0.0  -0.19138 
O  -0.19138  0.0  -1.80862 
O  -2.16263  -1.22077  -2.16385 
S  0.0  0.0  2.23 
N  -0.74568  1.11386  8.706 
H  0.0536  0.57543  8.30114 
N  -0.85068  1.21651  5.90459 
N  -0.7236  1.16963  4.532 
H  -1.48908  1.50378  3.92572 
N  0.88904  -0.56782  4.74458 
H  0.40307  -0.77389  5.63256 
C  -0.94132  1.36867  10.01039 
H  -0.27969  1.0377  10.7985 
C  -2.08997  2.11501  10.1748 
H  -2.49951  2.48299  11.10397 
C  -2.61714  2.31686  8.91894 
H  -3.51036  2.88159  8.69679 
C  -1.76154  1.68912  8.03132 
C  -1.86919  1.67498  6.55782 
C  0.47634  0.578  3.92732 
C  1.83027  -1.5359  4.33141 
C  1.74495  -2.84008  4.85442 
H  0.96967  -3.09222  5.57804 
C  2.62402  -3.83086  4.42503 
H  2.53047  -4.83817  4.8071 
C  3.61731  -3.51785  3.49483 
H  4.30103  -4.28363  3.16136 
C  3.7271  -2.21802  2.99803 
H  4.50937  -1.97746  2.29693 
C  2.82769  -1.23012  3.39935 
H  2.91487  -0.22707  3.00305 
C  -3.08043  2.26521  5.8735 
H  -3.89364  2.51373  6.58409 
H  -3.51388  1.54407  5.15142 
H  -2.77746  3.20559  5.37224 
