54

Ni  0.0  0.0  0.0 
N  1.379458209769328  -1.4755321235066357  2.7049940881993704e-15 
N  1.2396283185760932  -2.646783984084804  0.671723582004594 
H  0.526677942041543  -2.7378648781290558  1.209743415597514 
C  2.372827603534954  -3.364242813435215  0.5975703032106402 
H  2.5253377331409004  -4.211348416957767  0.9997091559074063 
C  3.2592869967172504  -2.6638941774840497  -0.15106094938321135 
H  4.140546370099555  -2.926332547229416  -0.38603683944689765 
C  2.612989136366833  -1.4754446330359487  -0.50830870096128 
C  3.1635034484590876  -0.357992089148593  -1.2645229922446966 
C  4.244573575384611  -0.6283054314647933  -2.1201434324137693 
H  4.515568240933903  -1.52907114427174  -2.2528203025729088 
C  4.9203006359069565  0.3762490823857042  -2.771415156335877 
H  5.647485948714534  0.16508347979650442  -3.3426198036559462 
C  4.540243490476239  1.6927601695069228  -2.59261509007748 
H  5.020230083476162  2.3914230949538067  -3.0225296015171135 
C  3.4466495715964767  1.9868057874151859  -1.7772158350017087 
H  3.175959349995851  2.891480839034959  -1.6699490884929782 
C  2.744644297749097  0.9785153196588533  -1.1176472349894175 
P  1.3794582097693284  1.4755321235066352  4.134403571588152e-17 
C  0.8832328753775509  3.0911292304911244  -0.6555779323704619 
C  0.32574998731756133  3.1067527398900343  -1.9295605050434004 
H  0.17324646358301443  2.291209482085393  -2.3915997240475346 
C  -0.00987365601426915  4.320378943936517  -2.5290425372081704 
H  -0.3922903108839155  4.3323549658193885  -3.399064517952455 
C  0.21456708073088548  5.506760176925056  -1.852473778173383 
H  -2.4149781393978387e-05  6.334739094182773  -2.2660322097933356 
C  0.7449868699802509  5.4922620411954455  -0.5860814766992078 
H  0.8861759682471856  6.310561053981777  -0.12502184476046796 
C  1.0791510078024096  4.285335067780764  0.029841058882709444 
H  1.437203083707868  4.279936164650774  0.9095876887624788 
C  2.1704279241256144  1.7061325046026223  1.6155891851611301 
C  3.2275775957388007  2.6076630296302046  1.778704923983655 
H  3.5353328356807996  3.1217128750496417  1.041385774149271 
C  3.823764369486427  2.7468551805349954  3.0252389892762817 
H  4.538144934708103  3.3613699346056287  3.1383952752840503 
C  3.386474865211385  2.001176667358895  4.103154637385362 
H  3.7928014563155026  2.11574340047634  4.955029824853874 
C  2.358986334567833  1.0873502629594123  3.943343148379446 
H  2.0674503068889405  0.5644055789994159  4.6812614650536055 
C  1.7543785847402456  0.9355001836351374  2.699398293388799 
H  1.052774234453937  0.3026863023751657  2.589933927753111 
Br  -1.5839191898578664  1.5839191898578664  0.0 
C  -1.2937473829822488  -1.2398794889499034  -0.459800567 
C  -1.601562203225019  -1.4938654694550033  -1.7919791134 
H  -1.1309417375171225  -1.0428217585005106  -2.480879663 
C  -2.60218398542082  -2.411889969420291  -2.121542410022 
H  -2.8231586547736818  -2.5626138747145775  -3.032700502 
C  -3.2683208079706407  -3.09759503004543  -1.14306436557 
H  -3.9596020908062854  -3.707191723557817  -1.368328076 
C  -2.9347449854640226  -2.896087320001541  0.14198826503 
H  -3.3668350933519986  -3.405606940434718  0.81710224434 
C  -1.9675509241539992  -1.9516175659140573  0.5112421903 
H  -1.7755298364628027  -1.8022912010877177  1.4301324877 
