68

Pd  0.0  0.0  0.0 
P  1.5325207845246342  1.464062855549583  1.156350362490778e-15 
N  1.5325207845246338  -1.4640628555495834  1.1102230246251565e-16 
C  2.7259713158399843  -1.0120762707580477  -0.202992380328984 
C  4.019403338308775  -1.697629289329256  -0.45164286188948755 
C  4.414884782583166  -3.0175479066720845  -0.445769972783394 
C  5.7511940606373075  -3.2999088882604193  -0.7117531479333056 
C  6.6419840409834165  -2.3001482840952736  -0.9787535323419947 
C  6.2588634523650715  -0.9664804585653113  -0.9942440366242926 
C  4.938720639198888  -0.671801242188328  -0.7117424927680643 
C  4.261285238672672  0.6313964093112614  -0.601928926940099 
C  2.977769081955407  0.4226094717550499  -0.27216661837268225 
C  1.317006533251988  -2.8962966268331725  -0.04277992395014671 
C  0.9804248527442169  -3.4574840662150566  -1.2580812529326355 
C  0.7726217940678423  -4.8436006610782005  -1.2825539775407555 
C  0.8956157928971212  -5.581693230604087  -0.1243809312896004 
C  1.2199120531885435  -4.978415781379786  1.0567503885975937 
C  1.433038767817104  -3.614168964770103  1.1385109957503365 
C  0.8354181273491422  -2.628266419992978  -2.4947216189179064 
C  1.777345523042635  -2.944299432678293  2.427865116339876 
C  1.9044632708640974  2.551527030304803  1.3910578116956942 
C  3.1852401433126607  2.7151792185232244  1.8584840885482734 
C  3.452692395597577  3.574519577600719  2.9038189248607122 
C  2.4462838262650575  4.25287288820854  3.5085925333800794 
C  1.1607844209687461  4.114402091526863  3.05336155085668 
C  0.8926769646463825  3.261567238660321  2.0083570123017047 
C  1.3541162486157095  2.5002103127778104  -1.4629984000150666 
C  1.7530379737645536  3.812421781512075  -1.493530653887642 
C  1.6103752565645881  4.563788801602931  -2.652260907329318 
C  1.098989455583487  3.9974913118078144  -3.7680123651400046 
C  0.7072111001142773  2.6905779557676857  -3.7574213316789296 
C  0.8195682111104694  1.9446470615711742  -2.611228572719163 
H  3.8078099362232507  -3.6991481509631017  -0.26781922707111894 
H  6.042442616559995  -4.182073759190892  -0.7058303809120425 
H  7.5287472307603265  -2.519033227310163  -1.1565380279834492 
H  6.871113428406271  -0.29258333983154095  -1.1864137798198873 
H  4.6588786124771895  1.4604432773464242  -0.7383959914935241 
H  0.5504469849722269  -5.2666911640931655  -2.0822927914430824 
H  0.7545775087873957  -6.500065505334927  -0.1469130732447374 
H  1.300170649617704  -5.49847142114546  1.8244242381242985 
H  0.1964402436869206  -1.9279376252875688  -2.336816256447128 
H  0.5322511247140251  -3.181612433744479  -3.218524035036138 
H  1.6837678245864427  -2.2398721493203952  -2.7210301289349386 
H  1.5752776665589732  -3.5338230359364378  3.1586414587167075 
H  1.2631458178781956  -2.1383556027891957  2.5174560549023384 
H  2.7126468087675155  -2.7297278459399115  2.4370579986954004 
H  3.88042386333389  2.2408651633802  1.4643555022832713 
H  4.328009880271355  3.6882527239399128  3.195706647192684 
H  2.628692747905344  4.810525209558857  4.2294706394414625 
H  0.4717926940313908  4.594976192108005  3.450918117979556 
H  0.016289294107797003  3.160954574086773  1.7130888076887194 
H  2.120988623017406  4.202130766913403  -0.7334633500178559 
H  1.8679878615196364  5.456107222255436  -2.66159856937607 
H  1.014705167187394  4.50031041360359  -4.545117840348377 
H  0.3608459016651464  2.3042315582370474  -4.528546723828876 
H  0.5348285264846179  1.059614520045761  -2.6061964319973003 
Br  -1.654629867976521  1.654629867976521  0.0 
C  -1.352040782177733  -1.3199206589279684  -0.4819701001757076 
C  -1.6380700204479186  -1.599217458033982  -1.8139382277462257 
H  -1.1579680913617836  -1.159339363685303  -2.503515938957912 
C  -2.63068216563725  -2.52632649780156  -2.142289956238523 
H  -2.8368222554424674  -2.694399528648736  -3.0538898079700485 
C  -3.3101544432602585  -3.1961573187854975  -1.1619874135498987 
H  -3.9960123560788676  -3.811990145619169  -1.3868663427944008 
C  -2.9974710358883443  -2.9701089012107795  0.12423560353005347 
H  -3.438659168087169  -3.468581175155742  0.8017084178296768 
C  -2.0389854250767776  -2.015940632791841  0.4912562833419403 
H  -1.8619130127668426  -1.8492165108145995  1.4101568590026907 
