58

Ni  0.0  0.0  0.0 
P  1.146417727096018  -1.6630773869546769  6.1421150650580466e-15 
N  1.1464177270960179  1.6630773869546778  1.8376365058192276e-17 
C  0.6027598252866173  2.738004641707086  -0.8699289124926688 
H  1.3149113546271325  3.3768519336815714  -1.0846695858520528 
H  -0.12200745126535284  3.202846573335771  -0.4023713080852858 
H  0.25538678625594535  2.3452232834107374  -1.698613554759849 
C  1.6378732846405089  2.344808786764096  1.2206032580132526 
H  2.2990844058225095  3.0256788796907195  0.9708484586933182 
H  2.054128468928152  1.6892773012471745  1.8177208871699062 
H  0.8855893862619033  2.7738902658326623  1.6805460376724524 
C  2.3288981248220164  1.0822119638675884  -0.7132003289789421 
H  2.8752714637939754  1.8245248800816567  -1.0701217893626027 
H  2.001666883704061  0.5536888765508141  -1.4837652587607 
C  3.2071130652345987  0.20197325309982908  0.13472020415023847 
C  4.477376779636506  0.6396413710776941  0.4781455444785851 
H  4.767316532921624  1.4968369088093672  0.190863436511736 
C  5.326759127827245  -0.14688989334845468  1.2270401409754779 
H  6.1982301381185785  0.16580376064455232  1.4374264926580198 
C  4.913663885090749  -1.3854732185489054  1.6705337113503995 
H  5.490703826954327  -1.9199698342642524  2.2039262903041306 
C  3.6404724500247596  -1.8472882735935618  1.3332209712875105 
H  3.357001251577125  -2.7050734381265436  1.6289120113238762 
C  2.789301489446419  -1.0714138704409903  0.5723826662575601 
C  1.5710885247004538  -2.185570790939419  -1.7231893820629596 
C  2.8900915864391585  -2.2453793246734626  -2.1746650651474 
H  3.59223628131792  -1.9431603576292686  -1.6117285470457765 
C  3.18907182270842  -2.739640753184126  -3.429314258590344 
H  4.090937790261535  -2.7457579880643546  -3.725214657385148 
C  2.2046648787881233  -3.2188227451052973  -4.2505467514813535 
H  2.4138157530228215  -3.5824454662988967  -5.1027781099977085 
C  0.8793459537473218  -3.1597329121421125  -3.8022212017196755 
H  0.1839472819049055  -3.488286423413499  -4.358989822810242 
C  0.5670765932839682  -2.638040108304088  -2.5767843143446325 
H  -0.342660588902131  -2.583893815590138  -2.3056082675900043 
C  0.9343294253381372  -3.306551055973114  0.8143898215845743 
C  1.1435633784290526  -4.515602845007389  0.16614214954326273 
H  1.5181649806964348  -4.517276774929013  -0.7055509429711556 
C  0.8140060685861057  -5.721892907476184  0.7709548103880256 
H  0.9546273023080842  -6.537775367693278  0.3028606107480255 
C  0.2800445832664711  -5.743917943885988  2.053931353418517 
H  0.04205603120010193  -6.567437213490081  2.4628813768640674 
C  0.10204900953468798  -4.543939677297733  2.728918786966562 
H  -0.24400435526577202  -4.547432199681574  3.614708542494163 
C  0.42366844374804535  -3.342956854329176  2.1206487659472857 
H  0.296050636297148  -2.529557492633168  2.5962685969194177 
Br  -1.5839191898578664  1.5839191898578664  0.0 
C  -1.29374738  -1.23987949  -0.45980057 
C  -1.6015622  -1.49386547  -1.79197911 
H  -1.13094174  -1.04282176  -2.48087966 
C  -2.60218399  -2.41188997  -2.12154241 
H  -2.82315865  -2.56261387  -3.0327005 
C  -3.26832081  -3.09759503  -1.14306437 
H  -3.95960209  -3.70719172  -1.36832808 
C  -2.93474499  -2.89608732  0.14198827 
H  -3.36683509  -3.40560694  0.81710224 
C  -1.96755092  -1.95161757  0.51124219 
H  -1.77552984  -1.8022912  1.43013249 
