99

Fe  0.0  0.0  0.0 
C  2.700815789806202  0.9576002890524618  0.08579461381931244 
C  2.9443975949122376  -0.42793921084818276  0.05288278560578799 
C  4.2401631658864485  -0.9466545894720568  0.12209355830025101 
H  4.369461608591689  -1.887969004976655  0.10651716984736656 
C  5.329203832787044  -0.1149045769980368  0.21231507782965015 
C  5.085294815980214  1.2662651261489928  0.265649144138817 
H  5.83239439264927  1.8475225610653205  0.34415702205839155 
C  3.816174236314094  1.839055108874684  0.21077683821813026 
C  3.6186121280881087  3.359188089905904  0.28087579237896304 
C  4.9468133867261725  4.109327469253225  0.42911124058452754 
H  5.39451858588165  3.820873014066645  1.2522187256265542 
H  4.774436213642725  5.072926049130215  0.47207793767434103 
H  5.519636708282188  3.914728165173299  -0.3407390001332328 
C  2.733201674606925  3.714673076149372  1.4869708522402258 
H  1.860657315258074  3.278605887947712  1.391065021643652 
H  2.61089343711905  4.685825264517858  1.52769151124412 
H  3.16409169243415  3.406265849008624  2.311238754553668 
C  2.9494255536858773  3.8505370138946495  -1.01141845179878 
H  3.5070313785732354  3.6094105696741052  -1.7805882327634603 
H  2.8450284372784385  4.824634214258866  -0.9757305500895858 
H  2.068261893851072  3.4320483330067595  -1.1026752244529001 
C  6.738735544164774  -0.6529743856303702  0.2357179763457949 
H  7.023947910559428  -0.8625495246394098  -0.6780372081346819 
H  6.769006684301777  -1.4657900628670673  0.7820721864632484 
H  7.339143209296463  0.01965065251345499  0.6185783212670058 
C  1.6951676029087448  -2.6588233814254973  -1.324485500128495 
C  2.630516228221046  -2.455822063356422  -2.324948250054069 
H  3.1839672230990295  -1.683986685793879  -2.3005655469337327 
C  2.7681314233593293  -3.3671717492604776  -3.362211330506489 
H  3.406641701652733  -3.2124117627694373  -4.049044586177043 
C  1.9797747118729618  -4.494742159182195  -3.396514772365591 
H  2.0796413916200813  -5.122648868112346  -4.10220320301811 
C  1.0513096284532226  -4.711272515915557  -2.4127131137558306 
H  0.5135724031027447  -5.4938982013048  -2.434947165149749 
C  0.8904242739463479  -3.7978026636685396  -1.388556313387345 
H  0.22778494320782294  -3.946275498409772  -0.7235327012484039 
C  1.5108994593935434  -2.4232292707213414  1.5354196392576287 
C  2.177484719751696  -3.6455145917256004  1.626517689350798 
H  2.556327373088901  -4.03938143877717  0.8496441534351457 
C  2.287103430630502  -4.287323527123508  2.853361867993179 
H  2.7371481461304574  -5.121443804364915  2.913281540433003 
C  1.7453175154097478  -3.7178901004335354  3.987115158897579 
H  1.8238924172482438  -4.161549351006137  4.8235895841984515 
C  1.0913990770831798  -2.509813273418785  3.9107670348438797 
H  0.7251894033493982  -2.1165429444824206  4.694236174786301 
C  0.9673751161108968  -1.86594154038842  2.6878969769435006 
H  0.5066208820392348  -1.0362939441670032  2.637995355035379 
O  1.4569593036526445  1.4337955180220083  -1.1830509082348235e-15 
P  1.4569593036526445  -1.4337955180220088  -2.220446049250313e-16 
C  -2.6489454123336524  0.9576002890524631  0.3656621263108776 
C  -2.864554073438833  -0.4279392108481823  0.48367987697365433 
C  -4.099058370526286  -0.9466545894720564  0.8834269050447726 
H  -4.21418678742129  -1.8879690049766547  0.9443051342115831 
C  -5.1480979217627585  -0.11490457699803636  1.1894751311319145 
C  -4.93950245780986  1.2662651261489937  1.052274316531493 
H  -5.665114706465611  1.8475225610653223  1.246717441776997 
C  -3.735011850009168  1.8390551088746854  0.6486898874351265 
C  -3.575692951219742  3.359188089905906  0.5124469482798553 
C  -4.868798482356539  4.109327469253227  0.8500419969637143 
H  -5.581742634799033  3.8208730140666467  0.24204815424725723 
H  -4.723268414725725  5.072926049130217  0.7481546755030918 
H  -5.127685470979376  3.9147281651733006  1.7740406322297233 
C  -3.181316895992899  3.714673076149374  -0.930842520821622 
H  -2.3323569849939405  3.278605887947714  -1.1539986475368629 
H  -3.0817252985462074  4.6858252645178595  -1.0126898833027507 
H  -3.878978580637498  3.406265849008627  -1.5459457284430742 
C  -2.4878366251879367  3.8505370138946513  1.4790925393874168 
H  -2.732760711747077  3.609410569674107  2.397002447668581 
H  -2.4031629208863006  4.824634214258868  1.4083624323435815 
H  -1.6324959773273446  3.4320483330067604  1.2485072621337756 
C  -6.472395986786761  -0.6529743856303699  1.6727576323794626 
H  -6.411204097599101  -0.8625495246394097  2.6280325581505792 
H  -6.696452368711655  -1.465790062867067  1.173540242300761 
H  -7.170129707644193  0.0196506525134561  1.5304935721235744 
C  -1.2046927563837957  -2.658823381425498  1.3218799578684022 
C  -1.7193821406391452  -2.4558220633564223  2.5910913676016643 
H  -2.24481113580424  -1.683986685793879  2.7666672514316586 
C  -1.4761351499280624  -3.3671717492604785  3.608776751948221 
H  -1.8260968223458895  -3.2124117627694386  4.478812454905199 
C  -0.7278475008652996  -4.494742159182197  3.3582799956237155 
H  -0.568184962425692  -5.122648868112348  4.052885918935315 
C  -0.21361365545378797  -4.711272515915558  2.107089895420618 
H  0.29637526414045556  -5.493898201304802  1.9351393837606812 
C  -0.4304392101370309  -3.7978026636685405  1.0933009983261055 
H  -0.05013524941378189  -3.946275498409773  0.2349792726298896 
C  -2.057561965066901  -2.423229270721341  -1.4141072986592966 
C  -2.7125195381482765  -3.645514591725601  -1.2602718621666706 
H  -2.787793047904056  -4.039381438777171  -0.39923287029539084 
C  -3.254519053714243  -4.287323527123509  -2.3663457410597903 
H  -3.6961452813031848  -5.121443804364915  -2.261003972514323 
C  -3.1550191700639223  -3.7178901004335354  -3.6189543294551125 
H  -3.528140785076441  -4.161549351006136  -4.37171175372392 
C  -2.517172994847863  -2.509813273418784  -3.782020625151766 
H  -2.4560570406692723  -2.1165429444824193  -4.644689888846235 
C  -1.9631492172573903  -1.8659415403884192  -2.6848192875345953 
H  -1.5151149409801703  -1.036293944167002  -2.8033516601792865 
O  -1.4569593036526445  1.4337955180220088  1.8579943565735442e-16 
P  -1.4569593036526445  -1.4337955180220088  -2.220446049250313e-16 
