63

Pd  0.0  0.0  0.0 
P  1.540387987651163  1.4557832419354195  -2.1093821101913787e-14 
N  1.5403879876511635  -1.4557832419354195  2.098321516541546e-14 
C  2.5223477449493523  -1.4260961609503928  -0.827947342691235 
H  3.1012765726179286  -2.1538874793828127  -0.851770426217341 
C  3.147164331691868  1.9094901029388702  -2.445349667125311 
H  3.6152336224142543  2.6375128809665798  -2.006930422844825 
H  2.476267842645001  2.279809254492824  -3.039910460465197 
C  2.522042227932788  0.9870905476213161  -1.4379438969701912 
C  0.6457011258341029  5.890716354928619  -0.8832669995921126 
H  0.4921694386030955  6.784761105210018  -1.0891466137122863 
C  2.6564332859245265  1.4050305351644963  1.4294373560801317 
C  4.815743788964142  1.0092295268811888  2.424535061486436 
H  5.705227224472275  0.7518577154692911  2.3410035785160983 
C  2.147201188757418  1.7231850011990586  2.694088955121174 
H  1.250525392160796  1.9473354520355293  2.7892433096596916 
C  1.592842729454723  -2.5269263524488133  1.0899201515992245 
C  1.6664083893204702  4.209266243066045  0.5308099479547964 
H  2.193168054717683  3.9919547739634096  1.2662687369478203 
C  1.1463573475637006  3.2074892113005484  -0.28404985753007006 
C  1.3017821502853326  -3.8923668162072165  0.4467311831110977 
H  0.43716790085817436  -3.8715463745872865  0.030440384632089923 
H  1.313735062124856  -4.573132383808076  1.124550878802844 
H  1.9700100638325264  -4.0847240620755825  -0.21318774790870337 
C  2.7782242561254344  -0.30678457797486414  -1.7352179755484798 
C  3.6263583870609017  -0.4394813555138093  -2.985742038161107 
H  3.097346330147393  -0.7510213375217444  -3.737828797285778 
H  4.369709641112333  -1.0457313037043443  -2.845072626350492 
C  2.979007951387104  1.7056023286811715  3.806035707115495 
H  2.6385458874768117  1.9277138289963824  4.641772390805798 
C  4.315695730387754  1.3584945207026946  3.67334625346258 
H  4.8745910271193775  1.3597616770669632  4.418256269240334 
C  2.9883863305335  -2.5093738836032173  1.760886043672393 
H  3.154943574720677  -1.6394225999792296  2.129538927195301 
H  3.6589828503385795  -2.714612727816584  1.1064865445502678 
H  3.0136474547875904  -3.164711891706424  2.461897563361435 
C  0.35814970526073675  3.543078051676588  -1.3963030583932157 
H  -0.00538778749290203  2.8740666137476873  -1.9291114172641328 
C  0.12540145434357264  4.88414667972623  -1.6963980042954234 
H  -0.37970341481272163  5.108175625523406  -2.44481462129403 
C  1.3891065527967505  5.554417340145967  0.2280822361653717 
H  1.7109194118904383  6.226013067336912  0.7854056188982504 
C  3.995564124150055  1.0402345891045806  1.297884226692425 
H  4.339234471290132  0.8181877137948566  0.46296163287799086 
C  4.121856128072415  1.016947818778096  -3.210457811803941 
H  5.023569225586236  1.127184037589526  -2.870612073513417 
H  4.115738471170554  1.2372982258713319  -4.155430833835722 
C  0.5430492367081657  -2.1844172235917423  2.149975347915262 
H  0.7530023588485201  -1.3355564114854654  2.547220534385525 
H  0.5415005182208399  -2.8639191415317145  2.828575535792451 
H  -0.32369572150774806  -2.1410258496698855  1.7398475921165648 
Br  -1.654629867976521  1.654629867976521  0.0 
C  -1.352040782177733  -1.3199206589279684  -0.4819701001757076 
C  -1.6380700204479186  -1.599217458033982  -1.8139382277462257 
H  -1.1579680913617836  -1.159339363685303  -2.503515938957912 
C  -2.63068216563725  -2.52632649780156  -2.142289956238523 
H  -2.8368222554424674  -2.694399528648736  -3.0538898079700485 
C  -3.3101544432602585  -3.1961573187854975  -1.1619874135498987 
H  -3.9960123560788676  -3.811990145619169  -1.3868663427944008 
C  -2.9974710358883443  -2.9701089012107795  0.12423560353005347 
H  -3.438659168087169  -3.468581175155742  0.8017084178296768 
C  -2.0389854250767776  -2.015940632791841  0.4912562833419403 
H  -1.8619130127668426  -1.8492165108145995  1.4101568590026907 
