66

Pd  0.0  0.0  0.0 
P  1.5987812373805244  1.391401651213624  2.5985149642706653e-15 
N  1.5987812373805241  -1.391401651213624  1.6653345369377348e-16 
N  1.854465327411979  -2.6245125279352854  0.3309467054006206 
N  2.856635975339181  -3.0100628825234725  -0.46693975676685595 
C  1.5078195236329377  2.9162986054103857  -0.9864682487103023 
C  2.006954083384417  2.6064283715897383  -2.2058005001716 
C  2.2195645780803996  3.3705772024270533  -3.4852853816278726 
H  3.0548561686923223  3.9017067503583847  -3.4474548124106903 
H  1.459133260266158  3.9773047560875354  -3.6694619993524538 
C  2.3160807458679082  2.2614616184014404  -4.550469844820585 
H  1.4196236267288416  2.0495502664616034  -4.914071470867443 
H  2.9034742690065984  2.5433673964044146  -5.2957321887661575 
C  2.909171052670935  1.0409297802232031  -3.823939996865543 
H  2.567402640405829  0.19524757985089547  -4.210205253329604 
H  3.8977311877877066  1.0429696081891429  -3.874813156387942 
C  2.4413329800596757  1.2172638422002011  -2.4170733200258097 
C  2.325509683513867  0.43719587688386596  -1.335367910284058 
C  2.436794699731758  -0.9650313292562323  -1.0077938308364924 
C  3.2460092665933598  -2.0191856805326247  -1.3114561572190364 
H  3.932025616288886  -2.0537583037274025  -1.9682590208515711 
C  1.1701040913245628  4.217669175454359  -0.4152511479471997 
C  0.4762900152703218  4.309306076193112  0.7909762088525165 
H  0.15972600451380825  3.5189157679447614  1.2122081256404547 
C  0.24044334197076167  5.539735972913961  1.3808351122769358 
H  -0.2340636289706599  5.585324890351764  2.2027574900808986 
C  0.6894860872267441  6.697814546843011  0.7870087744142287 
H  0.5357437254672435  7.538177061132194  1.201436839074643 
C  1.3644577749824454  6.629081701142718  -0.41808780123861344 
H  1.658615219621393  7.426886105091617  -0.8408903802317311 
C  1.6137308544516042  5.409989871317391  -1.009142470710998 
H  2.091824289518811  5.375703538569121  -1.8299837128110374 
C  3.4252641049809833  -4.307699624168242  -0.28544100494299984 
C  3.8696802555952754  -5.018971376028519  -1.3712930068653841 
H  3.814218754272618  -4.648214345123721  -2.244173305592379 
C  4.396183900794814  -6.280429031673146  -1.1788050991746075 
H  4.700658161036654  -6.7825021996837425  -1.9247905540019934 
C  4.482678177558446  -6.817062630137492  0.09172742346556378 
H  4.840580204698086  -7.6877527999696955  0.21898860029065098 
C  4.047691693391567  -6.081798571691344  1.1727564993694002 
H  4.108719283872749  -6.447452856028461  2.0476839006696426 
C  3.5215318429429905  -4.814482625600613  0.9967079419765543 
H  3.2320142687675304  -4.302702910966172  1.7431182433070418 
C  2.858213858800098  1.6365131613965587  1.264657597802714 
C  4.1797438828069176  1.8612586256032775  0.8953194438474095 
H  4.423245271723038  1.8830105510617536  -0.02254125763991993 
C  5.13343782611563  2.049844344019759  1.8710201148042536 
H  6.035291838554937  2.2159485417533267  1.6244240366877576 
C  4.782947093290031  2.001040808433345  3.207252493965047 
H  5.4466755246872225  2.1319841955143386  3.87460911432239 
C  3.481019044727984  1.7635478496519794  3.577587613683294 
H  3.247392434437966  1.7209503294116506  4.496848288483321 
C  2.5115601905948006  1.5835024725450224  2.6065323874859336 
H  1.6092574923809533  1.4248867846827133  2.8579379251337866 
Br  -1.654629867976521  1.654629867976521  0.0 
C  -1.352040782177733  -1.3199206589279684  -0.4819701001757076 
C  -1.6380700204479186  -1.599217458033982  -1.8139382277462257 
H  -1.1579680913617836  -1.159339363685303  -2.503515938957912 
C  -2.63068216563725  -2.52632649780156  -2.142289956238523 
H  -2.8368222554424674  -2.694399528648736  -3.0538898079700485 
C  -3.3101544432602585  -3.1961573187854975  -1.1619874135498987 
H  -3.9960123560788676  -3.811990145619169  -1.3868663427944008 
C  -2.9974710358883443  -2.9701089012107795  0.12423560353005347 
H  -3.438659168087169  -3.468581175155742  0.8017084178296768 
C  -2.0389854250767776  -2.015940632791841  0.4912562833419403 
H  -1.8619130127668426  -1.8492165108145995  1.4101568590026907 
