86

Ni  0.0  0.0  0.0 
P  1.333180023477709  1.5174752139656187  -1.0896185588960113e-15 
N  1.3331800234776998  -1.5174752139656187  5.329070518200751e-15 
C  2.5055806044337094  -1.0245508003633383  -0.07632182026717588 
C  3.8603888503702044  -1.6115186808286213  0.22170823533894957 
C  4.727169921545087  -1.5322451982090106  -1.056707338567415 
C  5.081343817597727  -0.00981102021502167  -1.203349334703137 
C  4.258084278757339  0.6154496438589971  -0.08178299530538768 
C  2.7685019631418877  0.41933510290232157  -0.44716326547760543 
C  4.452329514168105  -0.4365903073096322  1.0498382176741754 
C  1.0561881551145484  -2.941940038897497  0.23313980224854788 
C  0.5826283022630074  -3.302832585912371  1.5104895293305174 
C  0.19612183448738274  -4.658603013703103  1.6825736003416127 
C  0.27437656790725784  -5.558753538356715  0.6725505908694289 
C  0.7717578395410201  -5.183536141222417  -0.5798458062492211 
C  1.1936380276186875  -3.843352132756579  -0.7928642569993719 
C  0.5751135874627189  -2.3614691541717505  2.6704177290235025 
C  1.9282629628199932  -2.408509902740852  3.3788099056773233 
C  -0.5497868027594266  -2.6088981049345015  3.64771358310378 
C  1.761191477975084  -3.539867943518002  -2.1806567479254504 
C  0.7672866080877319  -3.8332578591506477  -3.3003770152329936 
C  3.0670647900754098  -4.331983596503708  -2.39010162143441 
C  1.2272605260092733  2.8691556737997823  -1.3237927498511977 
C  1.6744710284715287  2.298500290416612  -2.6694891308760216 
C  2.125275991081764  4.0885354092779025  -1.0296838836197222 
C  -0.23474437546073768  3.2505781475727966  -1.4300638869420559 
C  1.5187632103293527  2.2350395075888545  1.7168900620817324 
C  2.881803439122042  2.908242078278845  2.0152643463442996 
C  0.3946600126216815  3.233885519075895  1.9823802243096835 
C  1.3603893335530024  1.0966911780067594  2.7315037302788947 
H  3.8620675702815515  -2.4635138522168316  0.655664891965667 
H  4.213014850692023  -1.798444455555929  -1.8175273294351966 
H  5.529055586106056  -2.0306267421313065  -0.9477216163408508 
H  4.779255899496082  0.3199559838154862  -2.0368409020208698 
H  6.011569384342076  0.12012306911005588  -1.0201016132811256 
H  4.508116923453895  1.4976428867400844  0.16970294625197724 
H  2.7466790646315764  0.44518860919944947  -1.3970811815697117 
H  5.38692117192738  -0.609037199747593  1.152838763960413 
H  3.8945384998694754  -0.2601028348716987  1.758083441053898 
H  -0.11535958256098744  -4.93267483126718  2.538387514490404 
H  -0.014634092429338441  -6.452812164496975  0.8149067331183486 
H  0.8202387743274727  -5.823371013689732  -1.2856973309603155 
H  0.46780798356427056  -1.514195638158244  2.340750129107926 
H  1.922937524903725  -1.8326926755740685  4.115947756156428 
H  2.6050828252727776  -2.140209899384605  2.7576652832354647 
H  2.123331941867091  -3.303803586945158  3.6658035858122946 
H  -0.5271114547014661  -1.9347371396779178  4.3250226348038 
H  -0.45594719333144185  -3.4623663613388147  4.069066253692905 
H  -1.3826553345090997  -2.5712053113563296  3.1983169074001903 
H  1.9748990834215179  -2.615222125855381  -2.21869700624971 
H  1.1504734123940943  -3.574593874798486  -4.128945634120134 
H  -0.030345683567425397  -3.373035884140632  -3.1450108959313496 
H  0.6044878016927349  -4.778092296513975  -3.31947425609902 
H  3.334679608362967  -4.2965575615311105  -3.295468052819555 
H  2.9324265972109664  -5.24616137827763  -2.1362965183866143 
H  3.7578348468508445  -3.9654980322705637  -1.8397583831992297 
H  1.520259440546973  2.942024251146109  -3.340940415867581 
H  1.1711016002513244  1.5124833070597927  -2.850952710163756 
H  2.596393725131768  2.085279012057511  -2.6247144970122105 
H  2.1496763111977293  4.649805851893048  -1.8081196771344121 
H  3.0102768994522435  3.7962337222929508  -0.8410986085604327 
H  1.7766980271326411  4.5711845875046775  -0.30494716328183125 
H  -0.3493090503036067  3.8716339521925827  -2.1332565368085303 
H  -0.5175648482061206  3.6325464325672288  -0.6096288380475672 
H  -0.7531600163999896  2.4690474615454794  -1.6103049200816433 
H  2.7963988593954374  3.4632349092978876  2.7904838928465825 
H  3.14443597827461  3.4463551113517523  1.278515051797388 
H  3.5391899652643684  2.2450995928274824  2.1803884791533017 
H  0.32733084232108656  3.3911986552662112  2.9281665902553033 
H  -0.4334280323126325  2.8786010010566008  1.6780997762149927 
H  0.5713751800199736  4.0542125653061225  1.5483949401875363 
H  1.637772494496155  1.4072288300640405  3.5930923146275786 
H  1.8818010083359222  0.3601794381680059  2.475858267812262 
H  0.4400845855687999  0.8477390227931325  2.7809843856124536 
Br  -1.5839191898578664  1.5839191898578664  0.0 
C  -1.2937473829822488  -1.2398794889499034  -0.459800567 
C  -1.601562203225019  -1.4938654694550033  -1.7919791134 
H  -1.1309417375171225  -1.0428217585005106  -2.480879663 
C  -2.60218398542082  -2.411889969420291  -2.121542410022 
H  -2.8231586547736818  -2.5626138747145775  -3.032700502 
C  -3.2683208079706407  -3.09759503004543  -1.14306436557 
H  -3.9596020908062854  -3.707191723557817  -1.368328076 
C  -2.9347449854640226  -2.896087320001541  0.14198826503 
H  -3.3668350933519986  -3.405606940434718  0.81710224434 
C  -1.9675509241539992  -1.9516175659140573  0.5112421903 
H  -1.7755298364628027  -1.8022912010877177  1.4301324877 
