65

Fe  0.0  0.0  0.0 
Br  -2.3455150599957273  -4.018299999999999  1.1101796829041848 
Br  -7.137923922994577  -1.0884999999999998  1.2713621256517311 
O  -1.2205585244352453  -1.3379999999999996  0.24951343336272885 
N  -1.3186510339934059  1.3379999999999996  -0.23095249630199 
C  -2.48737239085369  -1.2295999999999996  0.48661846884268256 
C  -3.240992126765293  -2.3610999999999995  0.8661161811474162 
C  -4.596086838871301  -2.3270999999999993  1.0827170149923768 
H  -5.055863634710061  -3.1009999999999995  1.3181348308182885 
C  -5.270926575522478  -1.1258999999999997  0.9487426523830721 
C  -4.608826016254404  0.013299999999999982  0.6036398569482869 
H  -5.074286539474677  0.8150999999999999  0.5239483183540984 
C  -3.2220005474005995  -0.02229999999999998  0.370026995704683 
C  -2.580818699172609  1.1726999999999999  -0.07565267345573357 
H  -3.1289534262746623  1.8970999999999996  -0.2725709837896316 
C  -0.8711298773791694  2.5765999999999996  -0.8867276592829125 
H  -1.6500850106906304  3.0873999999999997  -1.1577468473263495 
H  -0.37481449090526436  2.3474999999999997  -1.687645555917304 
C  8.873989856328368e-06  3.4433999999999996  -7.01516379285616e-05 
C  -0.8469382989418515  4.334999999999999  0.9087354195724312 
H  -1.4835418673833156  3.7963999999999993  1.3841453654587088 
H  -1.3130991759112256  4.985099999999998  0.37593664256262643 
H  -0.2770287880606606  4.785499999999999  1.5358393977189282 
Br  2.3455150599957273  -4.018299999999999  -1.1101796829041843 
Br  7.1379239229945775  -1.0884999999999998  -1.271362125651732 
O  1.220558524435245  -1.3379999999999996  -0.24951343336272896 
N  1.3186510339934059  1.3379999999999996  0.2309524963019901 
C  2.48737239085369  -1.2295999999999996  -0.4866184688426829 
C  3.240992126765292  -2.3610999999999995  -0.8661161811474157 
C  4.596086838871303  -2.3270999999999993  -1.0827170149923768 
H  5.055863634710063  -3.1009999999999995  -1.318134830818289 
C  5.27092657552248  -1.1258999999999997  -0.9487426523830732 
C  4.6088260162544055  0.013299999999999982  -0.6036398569482876 
H  5.074286539474678  0.8150999999999999  -0.5239483183540982 
C  3.2220005474005995  -0.02229999999999998  -0.3700269957046832 
C  2.5808186991726094  1.1726999999999999  0.07565267345573268 
H  3.128953426274663  1.8970999999999996  0.27257098378963096 
C  0.8711298773791694  2.5765999999999996  0.8867276592829124 
H  1.650085010690631  3.0873999999999997  1.157746847326349 
H  0.3748144909052647  2.3474999999999997  1.6876455559173045 
C  0.8469382989418521  4.334999999999999  -0.9087354195724319 
H  1.4835418673833165  3.7963999999999993  -1.3841453654587093 
H  1.313099175911225  4.985099999999998  -0.3759366425626258 
H  0.27710781368844567  4.785499999999999  -1.5359006753670008 
N  0.0  0.0  1.8699999999999999 
C  -0.01241934163287306  0.052155903844151696  3.246040359745166 
C  1.2092677533726253  0.08019308362289268  3.948901746113119 
C  1.1958631601715954  0.00553023356899196  5.322278848624641 
C  -0.0034221469494049306  -0.05121018150365386  6.013626436615711 
C  -1.1840341949050837  -0.0534121507593146  5.32073462431505 
C  -1.206760059290807  0.0009218748596653281  3.9524279193881338 
H  2.0407921228703585  0.15188138408689345  3.4732279708133027 
H  2.0244242230319784  -0.008673778658120135  5.8067397667060945 
H  -0.006462741888383833  -0.08738199861736362  6.973226016872554 
H  -2.0135867964846934  -0.09273604533431068  5.803382448849622 
H  -2.043661978295311  0.0027316748901694554  3.4821850751146366 
O  0.0  0.0  -1.79 
H  -0.7840331132721864  -0.2290917269285046  -1.870032293142445 
C  0.5761868071964545  0.14567535006541132  -3.059468233393839 
H  1.3132223938860692  -0.4797773210035015  -3.138686919357805 
H  0.9399864407210956  1.041510153624181  -3.135299766281932 
C  -0.3595275451929894  -0.08195601810317354  -4.1832789652157505 
H  0.11128728915129574  0.006245640250493567  -5.014497564156503 
H  -1.068037656104708  0.5630752089668757  -4.143579861442836 
H  -0.7290846163850314  -0.9656812868717822  -4.117888748273068 
