71

Ni  0.0  0.0  0.0 
P  1.3516555533862922  1.5010420597038574  7.498490284721571e-16 
P  2.234264594893687  -1.6358948299453089  -1.3372307655029712 
C  2.9985119566969365  0.8948728060724758  -0.49385203535751904 
H  3.5913047916619183  1.6632706084815267  -0.6884762940385014 
H  3.3987363497875314  0.37807138469655044  0.24867264843359987 
C  2.8837971732886447  0.006200629049553319  -1.7354806031075403 
H  3.7775706840450636  -0.08800870977996489  -2.151857658127965 
H  2.2867099428962354  0.4413069445440403  -2.3948297318088327 
C  1.3079742320963017  -2.5365252328446903  1.0191660710171748 
H  1.9076097330546924  -3.2783458419352067  0.759074664163804 
H  0.3868966520086152  -2.894791063254597  1.0832549641307418 
C  1.723025577051807  -2.0076137777208864  2.340641384327825 
C  3.5944629859014783  -2.7546866580246108  -1.0272216809218577 
C  4.51356952325556  -2.449190834616126  -0.029894109422399395 
H  4.424941462536269  -1.64264146634669  0.46199782321862287 
C  5.551014459690467  -3.3132310969228858  0.24896730594104582 
H  6.170799613777287  -3.096645766819518  0.9350061951868669 
C  5.699566416909134  -4.49288905091076  -0.4593761683704302 
H  6.41947113102891  -5.083871398317479  -0.2660092693369615 
C  4.797266690148451  -4.800685516048554  -1.4441300305798304 
H  4.890045614385853  -5.612044043364088  -1.928872675051857 
C  3.748550663882219  -3.94005126089992  -1.7394945259361825 
H  3.134728965771  -4.16010180702863  -2.4304077839334086 
C  1.3647025841559859  -2.213043094645443  -2.797912489916428 
C  1.83705347150501  -1.9062648454797597  -4.065223089201199 
H  2.6110235737224645  -1.3642612155744733  -4.165626455892854 
C  1.171855764172919  -2.394647243068692  -5.195389273390711 
H  1.4826466962638438  -2.180650990982741  -6.06658212266304 
C  0.056044389634340996  -3.1950637085720213  -5.026342983276022 
H  -0.39108345093672003  -3.538291162905741  -5.79065526812945 
C  -0.4176053931243586  -3.505503174266896  -3.7651191207394157 
H  -1.1891476675482684  -4.051397328066732  -3.6648553105986172 
C  0.24276449627796826  -3.010236186114234  -2.6423748356873613 
H  -0.07566559152338637  -3.21950711091562  -1.7711142953117462 
C  1.0790202757616196  2.8309453206383606  -1.1855546558258436 
C  0.2567249856188196  2.622722058019282  -2.3130100157906055 
H  -0.2088978914407824  1.7998811675756938  -2.4169106672454563 
C  0.13290030787522555  3.6136632281111187  -3.2642035905159146 
H  -0.438597475294918  3.4688324230083682  -4.010499578529387 
C  0.814010895706262  4.80705596712165  -3.1614047694068583 
H  0.728342891265314  5.4709674335309355  -3.8346127668232572 
C  1.625926142188762  5.019697380422867  -2.0641155268283327 
H  2.0901796304639317  5.842552634221473  -1.975266272918267 
C  1.767115730862036  4.043806231650526  -1.095534406943127 
H  2.3408318341422034  4.200591088862607  -0.3541240810196038 
C  1.6173737381089632  2.2491615495878037  1.6349733591601854 
C  0.573281859087088  2.309783002139208  2.5474028126803923 
H  -0.27961757856878444  1.9655077956856633  2.3138627701444574 
C  0.777299412158837  2.875125455079813  3.8059690560469237 
H  0.07160302143313224  2.903171214842406  4.440321150294365 
C  2.0286821541960114  3.3949980662136787  4.116488236009161 
H  2.1754635665485895  3.7867598534323634  4.97041732502245 
C  3.04038180611842  3.3518094163148278  3.219497079519856 
H  3.8870491309308117  3.7150200748539786  3.450462355305227 
C  2.858217600652603  2.7872692393612364  1.9668416357316316 
H  3.5729503093765245  2.7656636056014485  1.341325815252222 
N  1.351655553386291  -1.5010420597038574  5.551115123125783e-17 
N  2.019780722913624  -1.5889027889535252  3.351738917353206 
Br  -1.5839191898578664  1.5839191898578664  0.0 
C  -1.29374738  -1.23987949  -0.45980057 
C  -1.6015622  -1.49386547  -1.79197911 
H  -1.13094174  -1.04282176  -2.48087966 
C  -2.60218399  -2.41188997  -2.12154241 
H  -2.82315865  -2.56261387  -3.0327005 
C  -3.26832081  -3.09759503  -1.14306437 
H  -3.95960209  -3.70719172  -1.36832808 
C  -2.93474499  -2.89608732  0.14198827 
H  -3.36683509  -3.40560694  0.81710224 
C  -1.96755092  -1.95161757  0.51124219 
H  -1.77552984  -1.8022912  1.43013249 
