63

Ni  0.0  0.0  0.0 
C  2.896427260302931  1.135713848674163  -0.7780241343082536 
H  2.704591475218511  1.1239483918710451  -1.7393002734000613 
C  3.3861782504770686  -0.2836435684719974  -0.4764738399697604 
H  4.242113663913832  -0.40073480662403604  -0.91666115234127 
H  3.5453594601368863  -0.3442524737243355  0.4786842585120387 
C  2.49808092645892  -1.45102990794226  -0.8734469089430129 
H  3.02049436273746  -2.266722301905367  -0.7304783108994651 
C  4.010891052904147  2.149897960394888  -0.6329989554111053 
H  4.200176906969108  2.286107535025882  0.29688531546874447 
H  3.74036789876995  2.9801592545998705  -1.0303799016356965 
H  4.799709331114454  1.8243224506722673  -1.0750271009292613 
C  1.5371149025694084  -1.8315727687941594  1.4620106676326632 
H  1.9791657607104427  -1.0447646646535707  1.8430546100795628 
C  2.465210969604148  -3.0311342596529522  1.6568107189758094 
H  2.529458665343487  -3.236167028251599  2.592759818763263 
H  3.3362447031128024  -2.8197324198401708  1.3147224303517526 
H  2.111668884762331  -3.7889753792176766  1.185201270658036 
C  0.22665027126741877  -2.022570067173953  2.1936818110558742 
H  -0.32671323928322415  -2.63767910682847  1.7054266067556634 
H  -0.2244778818590616  -1.1783703832529144  2.2707301278738585 
H  0.3974713001865138  -2.374527144917779  3.07002787369611 
C  0.9103768591962351  3.126428804792462  -0.8087353334210519 
C  0.9010515393268892  4.352164451703375  -0.1366020264787249 
H  1.085329965988464  4.377610415578973  0.7742011489601811 
C  0.6259106458161632  5.514090002432341  -0.8003360042750444 
H  0.6258418979721216  6.319908464740847  -0.3360847887930674 
C  0.3512824067462047  5.507182386619116  -2.1556191241983713 
H  0.15255400401003283  6.299653149340066  -2.599145811308137 
C  0.37199324383164867  4.328041562091689  -2.827193391990122 
H  0.21509312966560357  4.318504279479712  -3.744522811781676 
C  0.6266645554063343  3.132180368912341  -2.1603969989973186 
H  0.6074306751210076  2.3297007313841  -2.6300888758716234 
C  2.1065301366457443  -1.4326527284952184  -2.332599014884079 
H  1.6200721018580735  -0.6271109547821175  -2.523854919874422 
H  1.5546083433124216  -2.1934269304089224  -2.5268181636476794 
H  2.897808230900087  -1.4642907015291151  -2.8766836831256555 
C  1.4542324954052415  1.9178007876969694  1.7645013955364015 
C  2.5948637805677404  2.4340304916539406  2.358076103606962 
H  3.366943886312743  2.5481782318529667  1.8522707124531743 
C  2.595313597532199  2.779407360385768  3.690388422926168 
H  3.372388479360305  3.1052109911274166  4.083220030905252 
C  1.4512681787020687  2.6436870073245955  4.443134552387345 
H  1.4441552497565457  2.911261614780049  5.333721670914741 
C  0.3373454831623157  2.122412241893046  3.8815301210606736 
H  -0.428737481730215  2.003427884104831  4.39579786601773 
C  0.3341344824399003  1.7657464366773126  2.547739364283487 
H  -0.4406403500152869  1.4150181591211994  2.1719946446711518 
N  1.2887821664268928  -1.5553586491545917  -1.1545206708458735e-14 
P  1.2887821664268937  1.555358649154592  1.6018779660405954e-14 
H  0.838057956357828  -2.271792701587242  -0.13803026832024445 
Br  -1.5839191898578664  1.5839191898578664  0.0 
C  -1.2937473829822488  -1.2398794889499034  -0.4598005675376139 
C  -1.601562203225019  -1.4938654694550033  -1.7919791134336869 
H  -1.1309417375171225  -1.0428217585005106  -2.480879663633267 
C  -2.60218398542082  -2.411889969420291  -2.121542410022959 
H  -2.8231586547736818  -2.5626138747145775  -3.03270050271447 
C  -3.2683208079706407  -3.09759503004543  -1.143064365570095 
H  -3.9596020908062854  -3.707191723557817  -1.3683280760515548 
C  -2.9347449854640226  -2.896087320001541  0.14198826503765638 
H  -3.3668350933519986  -3.405606940434718  0.8171022443470677 
C  -1.9675509241539992  -1.9516175659140573  0.5112421903797603 
H  -1.7755298364628027  -1.8022912010877177  1.4301324877763764 
