70

Pd  0.0  0.0  0.0 
N  1.9178342317595212  0.010176513042852942  -4.817646662580166e-16 
C  0.23800950382672825  2.050055086248992  4.875048531566406e-15 
C  -0.678899846217492  3.0940150545013436  -0.02500836836011024 
C  -0.2212879210077856  4.407080255021748  -0.009968917300481847 
C  1.0965569425382005  4.681727641744972  -0.002212720322278926 
C  2.0469604395136085  3.6777600227077034  -0.01578043426209284 
C  1.6081214931776084  2.3451224582263226  -0.013230745684250799 
C  2.541581007243831  1.191996097351643  -0.013864350584250297 
C  3.929419171019364  1.2027904682363646  0.0034403518216746627 
C  4.612887059030948  -0.0114756373568885  0.009324301547838051 
C  3.9109083546404557  -1.2126903901870587  0.027484317114999154 
C  2.5435999302001377  -1.20482565837162  -0.006775257430018665 
C  1.6083000395518727  -2.3423759394634245  -0.002364753910208988 
C  2.054393486619835  -3.6560451999011434  -0.023946011149785975 
C  1.1311012175852182  -4.696163333648076  -0.023005909184649575 
C  -0.21344803305785032  -4.421522569141329  -0.016133277497167742 
C  -0.6750520707942111  -3.1004926469232474  0.008680971433164994 
C  0.2441562644137506  -2.060231599291845  -4.391549141832413e-15 
H  -1.6110745783217013  2.9114055694880725  -0.0518887480008957 
H  -0.843275904470284  5.122150629338209  -0.004207129108273196 
H  1.3815876844629036  5.58780776964255  0.009320188545939967 
H  2.9740381837102827  3.8861734572140154  -0.02292161991203135 
H  4.404994504800979  2.026440188249116  0.016043947396900283 
H  5.562574811162853  -0.017814627492752866  0.00402801466882665 
H  4.380407000664244  -2.03622967666424  0.060783341282149274 
H  2.985742154378551  -3.8447499015572966  -0.041558354461421254 
H  1.4264499094373018  -5.598802710447  -0.020155352517283686 
H  -0.8390085890705172  -5.136380374877056  -0.02989984351145659 
H  -1.6064459214112017  -2.918411339159296  0.031112921767997664 
C  -0.5752443194363335  0.1707626942034013  -4.6355243949941505 
H  -0.7567344758709079  0.22661148321256502  -5.544645138286034 
N  -1.9394118352724752  -1.141448047192739e-15  -0.060588164727524596 
N  -0.06058816472752482  -5.551115123125783e-17  -1.9394118352724754 
C  -1.3411629221910752  0.08524903588125556  -2.3695942993833534 
C  0.7409756836717237  0.08363385476322541  -4.206665864991471 
C  -1.609625667751611  0.17444092196282085  -3.7401789270891186 
H  -2.4862983665258414  0.2370268302266174  -4.042016388830847 
C  1.915036447367721  0.09652424214859368  -5.149580670826419 
H  1.598747052268373  0.15023219949419975  -6.0544244882144955 
H  2.425458405476851  -0.7085970954564214  -5.036760830314272 
H  2.4703271993680884  0.8572550392855294  -4.957085592888589 
C  -4.230155483434636  -0.09877928775108816  0.716977427821496 
C  -2.8510231705304117  -0.07836685178314341  0.9393440079575703 
H  -2.544276986157029  -0.119356418873451  1.8156908136013934 
C  -5.174380205369058  -0.13812522126015694  1.901847927920227 
H  -6.081939751827668  -0.1464831132578847  1.5879638963525262 
H  -5.032126645263314  0.637352038159352  2.450620088985754 
H  -5.008309484460293  -0.930288605262704  2.418847365736631 
C  -4.658762981604536  -0.027276449575113562  -0.6109971565156067 
H  -5.568269419504624  -0.024470398379728156  -0.8022719470527173 
C  0.9225370819714095  -0.001738297107479676  -2.84275847285206 
H  1.7960971099925047  -0.06543859042031977  -2.52938500544351 
C  -3.755880871184183  0.04029571345321544  -1.623160654902396 
H  -4.04218492301752  0.08558628251266241  -2.5071363922719847 
C  -2.383808282011768  0.041633909341095864  -1.3215830044150088 
N  0.0  0.0  1.91 
C  -0.06607728724215661  -0.00227094029308883  3.377311672733814 
C  -0.7586250522957476  0.9882311336092666  4.028889208192496 
H  -1.2111214168426552  1.6582090435558308  3.531698409549292 
C  -0.7946662425281353  1.0069810044629166  5.428520393522976 
H  -1.2840098643901838  1.6843257613729414  5.881464142822414 
C  -0.1123169803078945  0.028887543111711045  6.153943666660467 
H  -0.12248957083072454  0.033650662225824135  7.1044938500271115 
C  0.5885563744045594  -0.9610669220467717  5.452138203895397 
H  1.0584590764557997  -1.6307041236373092  5.936310042038569 
C  0.6090501929727885  -0.9825262288514568  4.0931588105446535 
H  1.08418886467919  -1.665098457876485  3.6349975018193517 
H  0.8850189021489745  0.6412648732139427  1.7429422697959358 
H  0.12403300377618626  -0.7998833488473178  1.3516077523719954 
