47

Pd  0.0  0.0  0.0 
P  1.6137414035402298  1.3740228100362826  -1.1978303131019856e-15 
N  1.6137414035402322  -1.3740228100362821  0.0 
N  1.5743851169583107  -2.681785422763614  -0.3343932437401553 
C  2.797061358535898  -3.1122010284436863  -0.6493214651951292 
C  3.656876227895375  -2.0690428075389313  -0.5369299326529863 
C  2.8886107527479075  -0.9864159296338109  -0.13154386612647073 
C  3.1970312609427136  0.45177024570909996  0.1632202347701478 
C  1.751406515261673  2.893107045577382  0.9586592420381999 
C  1.1549073583005538  4.055754749335529  0.49578055092076273 
C  1.2242160477386421  5.213019038097965  1.23503474368775 
C  1.8570944112886738  5.217650646069474  2.441549233927226 
C  2.4321414175339795  4.076431261975992  2.916918014956873 
C  2.3825861458334416  2.902030052466676  2.178749379650721 
C  1.4979296310579808  1.8812728133907362  -1.7240714014945797 
C  0.39691170173480206  1.5063211122713085  -2.48744922481443 
C  0.32946305530693554  1.8604686755036481  -3.821114221562742 
C  1.3336768744445562  2.6033209466191813  -4.394363075684176 
C  2.4214087562146167  2.976290060564581  -3.6356746327619307 
C  2.506817518288458  2.6196060620019512  -2.3200099343944456 
H  0.8644815871576262  -3.1666082729624474  -0.34264686728481525 
H  3.021142564257852  -3.97830586040683  -0.9018548754447357 
H  4.572280968055736  -2.0778575811449684  -0.6988009660660661 
H  3.852798362296557  0.7934436091866712  -0.46498431907508564 
H  3.5509183732555645  0.5439770664944517  1.0615246118826807 
H  0.7066597334774191  4.054254439453523  -0.31877615423284167 
H  0.8374566378781586  5.993904735309695  0.9106912424818067 
H  1.897664140761165  6.000860744285811  2.9413095755936034 
H  2.861007464031169  4.08458608292813  3.74210542582614 
H  2.7737089664312897  2.125675411766182  2.5082202752855185 
H  -0.2934761270247068  1.0171118028696324  -2.100258280323902 
H  -0.39853514849750327  1.5935758973624194  -4.334009922688818 
H  1.2786482133162729  2.853081752985227  -5.2882123281075755 
H  3.103397044365353  3.4743257845726343  -4.023070815547746 
H  3.2492731906606585  2.874348026577312  -1.8204363701953004 
Br  -1.654629867976521  1.654629867976521  0.0 
C  -1.35204078  -1.31992066  -0.4819701 
C  -1.63807002  -1.59921746  -1.81393823 
H  -1.15796809  -1.15933936  -2.50351594 
C  -2.63068217  -2.5263265  -2.14228996 
H  -2.83682226  -2.69439953  -3.05388981 
C  -3.31015444  -3.19615732  -1.16198741 
H  -3.99601236  -3.81199015  -1.38686634 
C  -2.99747104  -2.9701089  0.1242356 
H  -3.43865917  -3.46858118  0.80170842 
C  -2.03898543  -2.01594063  0.49125628 
H  -1.86191301  -1.84921651  1.41015686 
