64

Pd  0.0  0.0  0.0 
N  2.041092875923809  0.012992818446016331  -1.594067312298891e-15 
O  0.12682185823796888  1.8589671467745612  9.670674337321907e-15 
C  2.8326765989508296  1.1051395336649406  0.10502200662334261 
C  2.908491341451665  -1.0364992177780372  -0.12265426165531657 
O  0.23208526583822298  -1.8719599652205776  -8.080076471974971e-15 
C  2.414045800329509  2.47416570391336  0.22877551009140296 
C  1.025708938163941  2.780505371423032  0.13207625847935606 
N  4.099804053868652  0.6862180700945346  0.08497679887911208 
C  3.3500415547938056  3.56876812846472  0.318465697910901 
H  4.258658421080748  3.389387775442041  0.4018909893299643 
N  4.173441936169439  -0.6390492581477633  -0.06859501163237627 
C  2.4893517462085106  -2.442131701241659  -0.3207211219103755 
C  0.6479380719938491  4.139174455318403  0.12594574952727122 
H  -0.25225393458499434  4.36078274920192  0.05112352439601558 
C  1.1461089973466059  -2.7805230289415444  -0.2961274851841132 
C  3.4671826107970656  -3.4135744987929995  -0.5557127841957046 
H  4.370601102918013  -3.193660028651829  -0.5318770145114315 
C  0.77191945037515  -4.095988112947989  -0.5411905499189144 
H  -0.12775262467354742  -4.331380995730085  -0.5285918153354202 
C  3.059536064490879  -4.716265588344092  -0.8244719300658008 
H  3.697050862918247  -5.364281104956278  -1.0220551834451108 
C  2.93009695615258  4.8333892772870595  0.2838637612118262 
H  3.5568957301534345  5.518897736192145  0.2971227084022749 
C  1.734954729887808  -5.060546448400112  -0.8043565772168998 
H  1.4803240312977715  -5.940379722135077  -0.9657425981863919 
C  1.5895431027036975  5.148196824595652  0.22886054166150194 
H  1.3181324223911821  6.037623690176166  0.2604227563480087 
H  4.948368234417294  0.9109150775801003  -0.25071933800191354 
N  0.5245530556235378  7.079454005545192e-16  -1.9005613530838752 
N  -1.8845530556235373  -6.132455517505461e-16  -0.5794386469161248 
C  -0.6885232466513765  -0.08823573376793692  -2.705576775386741 
C  -0.6237177602775326  -0.1777529158285061  -4.1039938172779635 
C  -1.8487033729525686  -0.19079208534682116  -4.793848417028867 
C  -3.0443938027263293  -0.1441749064200873  -4.15090346232716 
C  -3.0774322723798404  -0.02681153555551295  -2.7959482015520063 
C  -1.9131488157757255  -0.03991970340623521  -2.081040558136708 
H  1.1190791281557337  -0.7014439001342732  -2.152764077184739 
H  0.9423255805180181  0.8511430216836329  -2.0547930427024115 
H  -2.2361586262611217  0.8390857194458262  -0.28695318040760254 
H  -2.415649585350206  -0.7183851492176704  -0.23144832593605147 
H  0.21427356525627128  -0.23838100274669816  -4.5496579435061815 
H  -1.8509200923774876  -0.2714904617310219  -5.74622081698802 
H  -3.8586015598738053  -0.1306634853442388  -4.656257575500662 
H  -3.913167245825372  0.0336957421016595  -2.3458081083471205 
N  0.0  0.0  1.91 
C  0.3900411923085597  0.1668987691714594  5.6172115463177406 
C  -0.16919949664018344  -0.14029406053488774  4.308085827679098 
C  0.506138806540221  0.22008365852893733  3.134016891943309 
H  1.356657073987825  0.636622109250359  3.2082800443711736 
N  1.6099273779512373  0.7616213123074476  5.77157919436623 
H  2.1572166831013053  0.9809162883754814  5.119452404593201 
C  -1.3949106612972324  -0.7640268574699159  4.158256328371826 
H  -1.8775959744114274  -1.050783478847845  4.9251386000405395 
C  -0.12936654928567698  -0.018329271454919915  6.866476094336969 
H  -0.9687200079872961  -0.4149041461630145  7.070961668683641 
C  0.7993845906689059  0.4822072039524149  7.795093979594337 
H  0.7077251500278259  0.4853229735079544  8.740808893784358 
C  -1.1972320713836142  -0.5835024026155392  1.7795317149940404 
H  -1.5548145027021882  -0.7333681032309491  0.9113247888575643 
C  -1.9201311992809342  -0.9709916883840557  2.89250211635245 
H  -2.7721748673124025  -1.3770096398979486  2.789504102701967 
C  1.8405896404378201  0.9560450394809593  7.090527701691868 
H  2.616464815277258  1.363492294024063  7.459970170600302 
