82

Pd  0.0  0.0  0.0 
Cl  4.230178826047491  -5.535241463353081  -2.162641412804947 
N  2.0118545361005786  -0.015214685858923195  4.0245584642661925e-15 
O  -0.016314986629525463  -2.113813570131175  -1.0352829704629585e-14 
O  0.404460450528947  2.129028255990098  6.300515664747763e-15 
O  3.6105530355415247  0.8132948118016734  2.3450816723882926 
H  3.202529766119162  0.16042757706662908  2.6283086580716897 
C  2.2829838539585317  -2.3695853215373472  -0.6477112881933177 
C  0.9503092657964486  -2.8371801315446263  -0.5096446531170681 
C  0.6995446351788764  -4.156759032284908  -0.9355850418480504 
H  -0.16757359782395875  -4.486995054239336  -0.8778052893584841 
C  1.6787786115295835  -4.967767595765833  -1.427623606922978 
H  1.4761460604624823  -5.8360466362574295  -1.6883068957832876 
C  2.9707690445789616  -4.498602893826225  -1.5408088239912805 
C  3.275709958704298  -3.230790978134591  -1.144851256412741 
H  4.153716565528148  -2.9301762136780836  -1.2039172514050078 
C  2.722688472449699  -1.0194623776022604  -0.35364630432480226 
H  3.636340535517867  -0.8628202752122867  -0.43228687534338284 
C  2.6531323667388906  1.316335949776686  0.1499394500130947 
C  1.711857240824573  2.2953553270770066  -0.5368287978008804 
H  2.0166325856238734  3.2034619779863194  -0.39007035757771347 
H  1.7004620457973494  2.128479138699707  -1.49201617066704 
C  2.7165343055969684  1.6562816608282875  1.6331236589657983 
H  3.001229438225444  2.5779511152576706  1.7352496509046649 
H  1.829050659455863  1.575388395208307  2.0167344870317248 
C  4.034361040071645  1.454973482182729  -0.49112467047080877 
H  4.662538505919482  0.9053854976744927  -0.016845302708342252 
H  4.316276449017837  2.371909521751166  -0.4486118307720669 
H  3.9905657849089913  1.1751500711250489  -1.4074587166839148 
H  -0.05293413715811368  2.783026913329777  -0.28176326473207247 
N  -3.0408041919836855  -0.20280599725922413  -3.9802703967018913 
O  -1.9300002231182534  3.757411048965764e-15  -0.06999977688174752 
O  -0.06999977688174752  0.0  -1.9300002231182525 
C  -2.3355340619094753  -0.08894458221482157  -1.3057125132771827 
C  -1.3282440325826508  -0.0775801289241365  -2.3285267173339093 
C  -1.6986911240353388  -0.1577076346238048  -3.6616472014855197 
C  -0.6907655198594634  -0.24407991360422387  -4.76924605751167 
H  -0.9032799963323004  -1.008586575740702  -5.344876608158893 
H  0.2043432377244644  -0.36026599368485235  -4.388571068981977 
H  -0.716245695585567  0.5801621510377076  -5.299023434831434 
C  -3.9981293737198995  -0.2416507044561811  -3.0233360807028578 
H  -4.910440014099268  -0.3004299530905175  -3.2818553940637227 
C  -3.6806132789818236  -0.19887642785029272  -1.6870193701723288 
H  -4.365242850725869  -0.2429600501712154  -1.0288123178425552 
C  -3.458370673451876  -0.18457249327919684  -5.379961556524994 
C  -3.4581627845607166  1.0188893220005288  -6.071993684352787 
H  -3.185573222501207  1.821649058022142  -5.644178073512386 
C  -3.8622735085119184  1.0299821000609617  -7.401634272279662 
H  -3.86799862840776  1.8506143210202803  -7.88067510657834 
C  -4.260912729027972  -0.14321746368133265  -8.045494595254535 
C  -4.243622745073947  -1.3340726226029145  -7.323815264163014 
H  -4.509510553461414  -2.141586553021983  -7.748675518282027 
C  -3.8424683306556537  -1.3631696803500357  -5.989296546788378 
H  -3.832795236852484  -2.181168627408667  -5.5066822868796255 
C  -4.740616797401229  -0.12359278865663911  -9.478499940295656 
H  -4.820233626300549  -1.0547084124081731  -9.8064408278986 
H  -4.068016911857338  0.33864037816396764  -10.038196307496072 
C  -6.089428036067811  0.5783058364490061  -9.636868916176605 
H  -6.73992409787285  0.17011028215273688  -9.011843402274264 
H  -5.987961154507434  1.5312837515881979  -9.387732758215929 
C  -6.643462577880343  0.49389926684565416  -11.05039784318392 
H  -6.850380214992769  -0.45089736907279615  -11.26053688812568 
H  -5.952345773818531  0.8023169557968317  -11.688939010443665 
C  -7.907003411917709  1.3354843566248622  -11.235824344476118 
H  -8.60521979454843  1.0158847987065889  -10.627239341699525 
H  -8.219017424748573  1.2563457525033754  -12.161245371433498 
H  -7.705755308535404  2.2741802183965456  -11.0379709392041 
N  -0.9374799568586791  0.5121286351886236  2.7672863338561866 
N  0.9593501608256931  -0.5029573270530231  2.754703651096101 
C  0.0  0.0  1.95 
C  -0.5913516396245057  0.31840310724662263  4.1061153400523605 
C  0.6357853178223635  -0.32385272383020247  4.096875474476635 
C  1.2911051158418898  -0.6759200075675955  5.281166405812943 
C  0.6430638324005264  -0.34431177414037545  6.459619652437072 
C  -0.5779498809333109  0.3089681931458297  6.4716369813103505 
C  -1.2361741586361825  0.6635346592569298  5.295369022318003 
H  2.074461775454426  -1.056690574227256  5.286463518835137 
H  0.9938811360163158  -0.4957417627778502  7.273864374879288 
H  -1.052760203884507  0.4896570367325488  7.253055440922276 
H  -2.114491163366127  1.1122756531224218  5.269682846525802 
H  -1.7186270411737679  0.9090569454644505  2.5129040444419832 
H  1.6311867061158665  -0.9145500605611316  2.5088696865267432 
