79

Fe  0.0  0.0  0.0 
O  -2.09001  1.71938  4.07695 
H  -2.05846  0.85135  4.55071 
O  -0.01093  -1.17238  0.93241 
O  -2.27356  -5.28597  -1.78412 
H  -3.1829  -5.13172  -1.43376 
N  -1.62536  -3.93043  2.60484 
O  -1.92105  -0.33803  -0.82234 
N  2.25146  -0.03395  -0.62418 
C  -1.59465  1.90084  1.08962 
H  -1.50014  2.62281  1.93058 
C  -2.62738  0.80355  1.2013 
C  -1.35088  -4.60433  0.33545 
C  -1.04999  -2.72099  2.36656 
N  -4.75475  -0.96008  1.34146 
N  -0.31948  1.54436  0.51411 
C  -0.78  -3.34799  0.03318 
C  2.79477  -0.96341  0.409 
H  2.41121  -1.99155  0.25543 
H  2.4653  -0.70585  1.42838 
H  3.91152  -1.00008  0.40663 
C  -1.5024  -5.71063  -0.69457 
H  -0.48532  -5.99246  -1.05428 
H  -1.92619  -6.64086  -0.26853 
C  2.83074  -1.93006  -2.31531 
H  3.47491  -2.04305  -3.23124 
H  3.21931  -2.65281  -1.59172 
N  0.31263  -1.91544  -1.69754 
C  -3.50157  0.83699  2.31567 
C  0.72095  2.56899  0.60835 
H  0.48905  3.27804  1.43465 
H  0.75231  3.16942  -0.32464 
C  2.95911  -0.44765  -1.89398 
H  4.05714  -0.30279  -1.7687 
H  2.7704  0.23393  -2.74024 
C  -0.95913  -1.73986  3.48411 
H  -1.41009  -2.15492  4.41129 
H  -1.53291  -0.84233  3.1958 
H  0.09339  -1.45779  3.67767 
C  -4.56514  -0.07242  2.3518 
H  -5.26242  -0.05969  3.17712 
C  -3.34543  1.82361  3.45901 
H  -3.44181  2.85888  3.05011 
H  -4.13328  1.7223  4.22885 
C  -0.59153  -2.39136  1.067 
C  -0.39405  -3.1557  -1.38975 
H  0.13127  -4.05729  -1.75149 
C  1.43256  -2.31485  -2.6887 
H  1.47521  -1.75617  -3.62389 
H  1.29552  -3.28139  -3.22206 
C  -1.77719  -4.86747  1.64692 
H  -2.22279  -5.81107  1.90304 
C  -3.91694  -1.04007  0.27432 
C  2.77848  1.31617  -0.27263 
H  2.71119  2.02376  -1.12257 
H  3.86849  1.25586  -0.04279 
C  -2.81878  -0.18089  0.1837 
C  -4.16781  -2.06082  -0.78551 
H  -5.0863  -2.63808  -0.55572 
H  -3.31026  -2.75582  -0.84295 
H  -4.29171  -1.55312  -1.76608 
C  2.09136  1.98699  0.9308 
H  2.7288  2.85969  1.18957 
H  2.04512  1.35347  1.84017 
N  -0.51346  -1.11168  -2.5297 
N  0.62009  0.95411  -2.77981 
C  0.0  0.0  -1.91 
C  -0.37531  -0.64212  -3.92836 
C  0.4022  0.4765  -4.03706 
C  0.84088  1.03446  -5.22604 
C  0.37089  0.47768  -6.4129 
C  -0.55319  -0.58097  -6.35591 
C  -0.94097  -1.15857  -5.11385 
H  1.51022  1.89312  -5.21943 
H  0.71072  0.89254  -7.35169 
H  -0.9458  -0.95987  -7.28996 
H  -1.64348  -1.97886  -5.103 
H  -1.49086  -1.45606  -2.56569 
H  1.09229  1.83142  -2.53222 
