27

Co  0.0  0.0  0.0 
N  1.2754375445312878  -1.326370638245585  4.709461824588502e-16 
N  2.432164613196492  -0.8273125764088465  0.21550359517416975 
C  1.2999342946320755  -2.7832439919530843  0.06306631820208453 
C  2.4970347691033465  -3.4940121986792074  0.1776984704457778 
H  3.4529644241025794  -2.9709711798297325  0.16897738714323776 
C  2.453075063152431  -4.874958027231891  0.2996397795073657 
H  3.381517086498773  -5.436710035694281  0.40595572503325034 
C  1.240834652140998  -5.547965695119304  0.2875834585257194 
H  1.2153370678486237  -6.633313861378586  0.39795877819848335 
C  0.06811543045988566  -4.843915580412908  0.1357523580173651 
H  -0.882441945784652  -5.375865911380171  0.10392972690485035 
C  0.085271911913948  -3.461328717342995  0.023684962176212944 
H  -0.8474127505533722  -2.9092482061454796  -0.09356131518107699 
C  2.4554325348756656  0.5737528923337747  0.21372704859426306 
C  3.7047112810406735  1.1706561915859486  0.4860648456814707 
H  4.58670314691403  0.5497845767790442  0.6443706461446981 
C  3.80278511296314  2.5457528933739875  0.5520238801172379 
H  4.759304392957464  3.0261394170404023  0.7533614942852942 
C  2.6530054279041764  3.3062525839689427  0.3579236059528567 
H  2.7147471144917423  4.391754734336522  0.42906154017001774 
C  1.414987501217038  2.7096529630314015  0.07128225251878763 
H  0.5458726041350292  3.3438572312385566  -0.09876509929233301 
C  1.2754375445312878  1.3263706382455847  -5.1411253198533055e-17 
Br  -1.5909902576697317  1.5909902576697317  0.0 
O  -1.2303657992645929  -1.2303657992645929  0.0 
H  -1.8100950507259972  -1.8100950507259972  -5.551115123125783e-17 
