75

Pd  0.0  0.0  0.0 
N  1.8948282533276213  0.025418718912365468  -4.405841077304582e-15 
N  0.23847397356465416  2.0035771453056874  3.900621673800229e-15 
N  1.584043132444744  2.284874748977726  -0.03398274325442287 
C  0.2666977731077246  -2.0289958642180532  5.086888504563067e-16 
C  -0.5819772622366806  -3.1573755769544065  0.07319677771731502 
C  -0.04264016466614984  -4.445619984582768  0.043576153172080995 
H  -0.6403017291758926  -5.182957166865423  0.09094781063982672 
C  1.3207356801507049  -4.707348680123156  -0.04987969576554956 
C  2.182020100481812  -3.6056863225323443  -0.08144323742939209 
H  3.1208470785848696  -3.742165425146135  -0.1255102288812404 
C  1.6722296540475738  -2.3015569728068273  -0.05138213450752505 
C  2.582058717916518  -1.1420218045472597  -0.03172385104688928 
C  3.9665452681712283  -1.0887091874274388  -0.05626294270990422 
H  4.478130879939243  -1.8885905070282198  -0.0806072723507168 
C  4.598495977407858  0.151593241896538  -0.04563680002488011 
H  5.547945566922427  0.19079299959897345  -0.03422119812717248 
C  3.8706154545324845  1.3331371109792172  -0.05095843997950168 
H  4.295046519185963  2.182880912069959  -0.06557363292980911 
C  2.4968782916901855  1.207128604472613  -0.03397569244063769 
C  1.7823322375904322  3.6249726564904883  0.04064820917443228 
H  2.622328414295584  4.067476325858404  0.04346524958235308 
C  0.5560047404430704  4.222505197837071  0.11139156060890062 
H  0.37177589515434906  5.152870662551527  0.1624358025000477 
C  -0.37346086717419347  3.175572985817386  0.09307878659071399 
H  -1.3151585429709918  3.289457228578406  0.1414990989570783 
C  -2.0746854182393584  -3.0211678274774676  0.21986667914740393 
H  -2.448184758588625  -3.863871702270508  0.5542689401556964 
H  -2.470262361999829  -2.8119985765690845  -0.6514984200157149 
H  -2.275766987752858  -2.3006599638310283  0.85222754987363 
C  1.8472609607892936  -6.120346982340591  -0.03864774228000788 
H  2.7526702381691885  -6.135404167891204  -0.4124448284079106 
H  1.261285103357561  -6.691900000647738  -0.5771285792381445 
H  1.8693965504019439  -6.453579049406059  0.8832353008180721 
C  -2.3926792303113618  0.07848155584167031  -1.3281991801513926 
C  -3.727253843853172  0.27458130403659897  -1.612576569631775 
H  -4.017557633032455  0.34103332403680153  -2.493219748805986 
C  -4.622937495656032  0.36971193439967315  -0.5691019225703824 
C  -4.155955274929298  0.2666504447934269  0.7302776158575925 
H  -4.740611042845735  0.3218983757723916  1.4512703475578976 
C  -2.8147387138031985  0.08284166119767951  0.9314067217430018 
H  -2.504084175908304  0.012254751695386798  1.8053529078964852 
C  -1.338027825458734  -0.048927578814782824  -2.385357454322523 
C  -1.6393911836266655  -0.20853371877883245  -3.718994236373603 
H  -2.5247439230595727  -0.23622351065437702  -4.001298083680989 
C  -0.6102938602235877  -0.3258096750218122  -4.633424911193702 
C  0.6927317028966806  -0.2941334391554819  -4.1634008182617634 
H  1.408545993026792  -0.39081179056068627  -4.749644366981164 
C  0.9084275278485759  -0.11865631892991879  -2.8449220617489046 
H  1.7894640862954199  -0.07609091864357848  -2.548956338431813 
C  -6.49460750875663  0.7391598240532342  -2.006871423878166 
H  -6.341442083012787  -0.06026354466941579  -2.5164764963577158 
H  -6.067886114666944  1.4812960249988372  -2.4406245000311957 
H  -7.438938478462941  0.904084836884472  -1.946269445394288 
C  -2.0893408029519778  -0.5091565187099288  -6.510057258275895 
H  -2.5819195329904963  -1.2539003877472328  -6.1576591535066125 
H  -2.0366457889104206  -0.5854978791322641  -7.466445282136508 
H  -2.535363324113956  0.3083305690635788  -6.27865505011898 
N  -1.929376294888136  4.440892098500626e-16  -0.07062370511186411 
N  -0.07062370511186389  0.0  -1.9293762948881361 
O  -5.9510955298252455  0.5772983194866417  -0.685977835394382 
O  -0.7649821910882708  -0.505628936362576  -5.955089805766129 
N  0.0  0.0  1.91 
C  -0.023660348703820278  -0.04629773665062273  3.2715581359164374 
C  0.9655914005090186  0.5905052810161188  4.042540102871481 
C  0.9180978068048217  0.5686397924958948  5.418396199623186 
C  -0.10620609750898624  -0.06589790339206301  6.084874912039933 
C  -1.1104231114837457  -0.6562397010726042  5.351265206027993 
C  -1.0760021899492802  -0.6273881175552676  3.988741765389536 
H  0.7737807556765011  0.28994432169007756  1.612892927609619 
H  1.6905349948047423  1.074508522986442  3.689442967720524 
H  1.5176919802178734  1.0174421954945319  5.764008641922021 
H  -0.051895188484590626  -0.09919356154064082  6.970903565250085 
H  -1.7735812272873357  -1.0569370931845972  5.827971523794481 
H  -1.723928774595198  -0.9890860002872697  3.5277116443168843 
