69

Pd  0.0  0.0  0.0 
C  -0.72814  3.1169  -0.0516 
H  -1.8034  2.8677  -0.09348 
C  -0.16218  4.52297  -0.06414 
H  -0.83575  5.37168  -0.10135 
C  1.16647  4.73983  -0.03366 
H  1.55953  5.75334  -0.04724 
C  2.12023  3.61761  0.01192 
H  3.19108  3.80734  0.0256 
C  1.65993  2.36564  0.02592 
C  2.52433  1.1943  0.05099 
H  3.60614  1.23711  0.06218 
C  1.63679  -2.28043  0.00783 
C  1.25502  -4.60542  0.01648 
H  0.71979  -4.6358  -0.95912 
H  0.51229  -4.52538  0.83893 
C  2.0576  -5.8697  0.21206 
H  1.36851  -6.74479  0.1955 
H  2.80508  -5.96229  -0.60124 
H  2.57008  -5.8194  1.19119 
N  0.27083  2.07093  0.0 
N  1.82087  -0.0207  0.0 
N  2.42264  -1.26164  -0.00139 
O  0.3083  -2.05023  0.0 
O  2.11653  -3.53149  0.04362 
S  -3.99262  0.4268  -1.6308 
N  -1.93607  0.0  -0.06393 
C  -2.33995  -0.31349  -1.43279 
C  -2.99868  0.29894  0.8798 
H  -2.90565  1.35583  1.18792 
H  -2.95624  -0.35731  1.77768 
C  -4.31047  0.07637  0.13073 
H  -5.11268  0.71389  0.56058 
H  -4.62288  -0.98958  0.18526 
N  -1.36109  0.32971  -2.33733 
N  -0.06393  0.0  -1.93607 
C  -1.36811  -0.06705  -3.70584 
H  -2.25948  -0.04692  -4.32354 
C  0.77128  -0.1868  -3.0431 
H  1.84658  -0.2735  -3.04145 
C  -0.06244  -0.2293  -4.15444 
H  0.22692  -0.35375  -5.18875 
S  0.0  0.0  2.23 
N  2.37924  -0.61908  3.60981 
N  2.73495  -0.75625  4.89802 
N  0.65265  0.01082  4.86529 
N  1.02381  0.78401  9.15761 
C  1.12178  -0.13479  3.60643 
C  1.69038  -0.36666  5.64152 
C  -0.69484  0.31606  5.26171 
C  -1.32589  1.50279  4.86663 
H  -0.78586  2.23292  4.27783 
C  -2.65032  1.76201  5.24195 
H  -3.12728  2.68939  4.9473 
C  -3.36663  0.82562  5.9945 
H  -4.39417  1.0224  6.27306 
C  -2.75454  -0.36724  6.38409 
H  -3.31567  -1.10062  6.9517 
C  -1.42251  -0.61876  6.03403 
H  -0.96904  -1.55488  6.33138 
C  1.64767  -0.33472  7.13019 
C  2.17809  -1.38607  7.8872 
H  2.61315  -2.24674  7.39945 
C  2.09453  -1.34455  9.28118 
H  2.47099  -2.16605  9.87543 
C  1.51335  -0.2382  9.90618 
H  1.44841  -0.19123  10.98556 
C  1.06898  0.75451  7.79963 
H  0.67555  1.60244  7.2492 
