58

Pd  0.0  0.0  0.0 
P  1.4324620335282894  1.5620987556809591  2.762101667284862e-15 
C  2.99870738480575  0.6824961601324937  -0.3847970159788112 
H  3.673952056415688  1.3403371969189528  -0.6889345239947045 
H  3.340779562818348  0.2561281967897009  0.4401569796261925 
N  2.8286245504731427  -0.34282456890284774  -1.4203045109182963 
C  2.3796966321635926  -1.561200371379136  -0.9737884103099103 
N  1.4324620335282887  -1.5620987556809587  -1.1102230246251565e-16 
C  1.1466940389232012  -2.7408879604628877  0.6145926325209063 
H  0.5534881873485564  -2.7325757843262783  1.356131259556277 
C  1.6773008365787296  -3.946164904800032  0.21235128241991202 
H  1.4701812023852687  -4.748284306946147  0.6770363928251538 
C  2.524145740610112  -3.958974094953491  -0.8898367837302064 
H  2.845503224922406  -4.783795883789966  -1.2357319758579268 
C  2.894785543535214  -2.773466390485268  -1.4779417226094291 
H  3.4915313026638186  -2.7706035433165246  -2.2165007676885162 
C  3.8244035273629597  -0.3200302482041679  -2.492663866791231 
H  4.683004594452685  -0.6447423562929313  -2.1488750443246527 
H  3.9306954962290472  0.597913367578893  -2.820443084554787 
H  3.5273076132991137  -0.8964585640999034  -3.2273099002523664 
C  1.751240547423329  2.3031145498427037  1.693064609482394 
C  2.046202192826535  1.1290280951098877  2.6433410506057045 
H  2.222955536449537  1.4739791380835452  3.5439249575624525 
H  2.831037364675897  0.6383303897232302  2.3216396596288043 
H  1.2731577747392766  0.5281145859055332  2.6695454799994773 
C  0.5166587980841272  3.044854072255232  2.2138486771053008 
H  0.7107628461098026  3.423821937025048  3.0961083135003142 
H  -0.23359457959538465  2.419629641694664  2.286337094874588 
H  0.282422305183037  3.7657425569970977  1.5922379565092086 
C  2.9630895698761854  3.2488249760417247  1.68982940337809 
H  3.0949545079242133  3.6131130518951204  2.59031229377892 
H  2.8031468818893046  3.9829678276568137  1.0599990532186179 
H  3.7639169020574506  2.753306551111816  1.417021073984655 
C  1.257967549629195  2.8371384692435946  -1.3704285475452362 
C  0.29254881764344653  3.978778995179863  -1.0093196422673216 
H  0.24325238867807109  4.613268848267248  -1.7550464343436372 
H  0.6175419430571898  4.440707261479163  -0.20758125274893313 
H  -0.5980430250161732  3.6105091096122095  -0.8354773540513847 
C  2.607462756764333  3.4502268425087754  -1.764603017147714 
H  2.471010205758428  4.10978308775453  -2.477077796126813 
H  3.2058910111843777  2.743363268112894  -2.084890827568393 
H  3.0070896853787854  3.888908131068714  -0.9844452542602392 
C  0.6998852720200728  2.0805707390012076  -2.5872731805919282 
H  0.5909024119382768  2.702676611927515  -3.336669710527172 
H  -0.16843547857359265  1.6897590231735025  -2.358548068590064 
H  1.3219413292577564  1.3673384443411194  -2.842487983273557 
Br  -1.654629867976521  1.654629867976521  0.0 
C  -1.352040782177733  -1.3199206589279684  -0.4819701001757076 
C  -1.6380700204479186  -1.599217458033982  -1.8139382277462257 
H  -1.1579680913617836  -1.159339363685303  -2.503515938957912 
C  -2.63068216563725  -2.52632649780156  -2.142289956238523 
H  -2.8368222554424674  -2.694399528648736  -3.0538898079700485 
C  -3.3101544432602585  -3.1961573187854975  -1.1619874135498987 
H  -3.9960123560788676  -3.811990145619169  -1.3868663427944008 
C  -2.9974710358883443  -2.9701089012107795  0.12423560353005347 
H  -3.438659168087169  -3.468581175155742  0.8017084178296768 
C  -2.0389854250767776  -2.015940632791841  0.4912562833419403 
H  -1.8619130127668426  -1.8492165108145995  1.4101568590026907 
