104

Co  0.0  0.0  0.0 
O  1.111365190880119  1.3909951159152207  3.089590736590391e-15 
O  -0.033339402405330176  -6.70537362121728  -1.2727952728128364 
N  1.1113651908801185  -1.3909951159152212  1.3877787807814457e-16 
C  0.6102543307642083  -3.678589931017317  0.7503233221697934 
C  0.8503029813890828  -2.123156859941123  -2.7427008957159003 
H  0.34028557439182994  -1.3456719157985053  -2.434446802164227 
C  0.7058325582067541  -3.178619537848527  -1.632798034033808 
C  0.1882119198744231  -2.5551675608590863  -4.048719077271891 
C  3.0260698216932744  0.0669739177615325  0.4818667176537803 
C  2.2790655531798603  -1.636298813315691  -2.9063059869750325 
C  0.33013339621877025  -5.011436879067275  0.43763122904412954 
H  0.20487134095088888  -5.6294252531201945  1.1199193551649762 
C  0.23932643557893063  -5.412147707324397  -0.8789890305663957 
C  0.6842899883081817  -3.2057575626827584  2.1979184910161136 
H  0.35396906870037925  -2.2844447662990017  2.205674861881574 
C  4.388834066183242  -0.007944698995387967  0.8238886245587983 
H  4.764652596040204  -0.8423438005596946  0.9920448374230032 
C  2.362947977185118  -1.176442795360424  0.27421954848188934 
H  2.8962315100961975  -1.9337065362233357  0.3438167488579813 
C  0.8200777660256049  -2.7773872879187467  -0.29007266594592573 
C  0.4221710456290608  -4.50406278988103  -1.9093916563819093 
H  0.35389548727882836  -4.787617858110356  -2.79129409509803 
C  2.390565389767895  1.312347988582916  0.23830614874125758 
C  2.5587300210152675  -0.279677543830938  -2.8577808737663504 
H  1.863467116858709  0.3270299423019152  -2.739814944896363 
C  -0.25291635546761393  -4.011200408729591  3.1182586351684844 
C  5.176767117506005  1.1053895264674054  0.9158983471232579 
C  2.112008524864004  -3.1552711632723662  2.7232059207624495 
C  3.235917479565764  2.4740292242045117  0.2171238193351892 
C  2.6842318398612592  3.8487054780042  -0.2065113328690306 
C  6.653999587109183  1.033382587798826  1.2940831849126266 
C  4.6333455223520685  -2.031689684000475  -3.2267260489777336 
H  5.333395621498081  -2.62894878685029  -3.370426406488546 
C  3.3397864579737226  -2.5114032231533105  -3.0871797938572323 
H  3.18210339484506  -3.4276332590592578  -3.1152931875717846 
C  -0.348930377191361  -7.637361846889105  -0.26185374935922257 
H  0.3823545667696553  -7.700046966342331  0.3563010504564029 
H  -0.5054861661657462  -8.496844275203301  -0.6588309909710665 
H  -1.1384031382239934  -7.351027361999169  0.2028567006527656 
C  4.560306925039863  2.320556999494694  0.5727958353267074 
H  5.090693987224356  3.085604261576424  0.5854176833914174 
C  3.041409575395603  -4.131722891577919  2.425746193135511 
H  2.799727439621827  -4.85364237462318  1.8918395859021004 
C  3.850409985271501  0.18741475402555619  -2.981572978612362 
H  4.017121796762567  1.1014336786451944  -2.946542743863929 
C  -1.1772160018564577  -2.5922893195261008  -4.121117044033596 
H  -1.6769986683404947  -2.3665002017883614  -3.3720790405962773 
C  4.892912024903474  -0.6921780432467606  -3.157256666955626 
H  5.766238760243484  -0.37792389885863464  -3.2281150897102324 
C  3.800120135238586  -2.019668696429288  4.0146391703803666 
H  4.044397712423406  -1.306378161726597  4.557910868877776 
C  -1.8306787246412894  -2.959198213856901  -5.286450448339676 
H  -2.7604521696498225  -2.975443004899991  -5.312985476527479 
C  0.8897350613136701  -2.890619022665974  -5.176552779019153 
H  1.8194127122779384  -2.8724642428892055  -5.158484318408489 
C  4.339354269664485  -4.037817454020681  2.9227200751620837 
H  4.957594075087105  -4.703401103026409  2.720219953761558 
C  2.5071135627432257  -2.101678459579997  3.5251698125734614 
H  1.8936519304415493  -1.4356049670139244  3.7396757290294067 
C  4.714176904501053  -2.978920515312974  3.7057393313809968 
H  5.585169950192984  -2.916194306570976  4.02377144783022 
C  0.20258981768284756  -4.73788386608661  4.1835153549433555 
H  1.1114732950390716  -4.750014106377855  4.3780446891306966 
C  -1.605652093927966  -3.9965051702157224  2.8822482077353047 
H  -1.9433407579763258  -3.48864479966712  2.1792237770079828 
C  2.114452228614948  3.756801287588773  -1.6311954643143656 
H  2.813278915926829  3.5108385260481696  -2.24056632104781 
H  1.7516065816208055  4.608258389377898  -1.8855993956327937 
H  1.4218332640571014  3.093676266913849  -1.6554653404924602 
C  -1.1171122578650552  -3.295676052380475  -6.389911114460147 
H  -1.5550796057128853  -3.552092067734579  -7.169506502651385 
C  -2.48104012682276  -4.733593894158079  3.684733481682239 
H  -3.3929915028053865  -4.731490134075444  3.4998211996755217 
C  1.6338197424673986  4.305062928678877  0.8034198741259695 
H  0.9305750642128182  3.6531735405530426  0.8520387815133658 
H  1.2682856994734482  5.148377719348135  0.5269710954146632 
H  2.0407498082509212  4.4014199744128675  1.668257877048401 
C  3.773868085074883  4.930792350760507  -0.22412731780462586 
H  4.112618259059165  5.057970072648915  0.6646706157443348 
H  3.4007015282755453  5.754522554332148  -0.5458831454291694 
H  4.489141775074293  4.654994150169713  -0.8026640590281533 
C  0.23456212433089796  -3.2578657794339776  -6.34898132366004 
H  0.7291946758910524  -3.4770802299458117  -7.106824443061334 
C  -2.0087101679180295  -5.449759367064539  4.722875035295122 
H  -2.593103020447397  -5.933076427137506  5.259520042124571 
C  -0.6840177328597554  -5.462107311211486  4.979530155592391 
H  -0.35960018568629115  -5.959699403434323  5.695181142347284 
C  6.78282660956366  0.2720649865481368  2.6044277839824574 
H  6.267449187880299  0.7128126987330337  3.284062500151971 
H  7.704258835944357  0.24420207419384  2.8690113252359937 
H  6.457310572574896  -0.62336972831819  2.487597945861344 
C  7.259980001143335  2.4430532239964515  1.582670702399418 
H  7.310274829032537  2.9440595194365815  0.7642857427276376 
H  8.14175419721588  2.342144325471925  1.94968678016601 
H  6.703346478842061  2.9098208190593584  2.210100056231125 
C  7.449546144396624  0.44046471155067746  0.19394844897636956 
H  7.106477853634797  -0.4309069605220186  -0.015774813879732744 
H  8.367961340353949  0.3661488143794758  0.46704126334956253 
H  7.392213055836626  1.0026897697497068  -0.5822804353672151 
O  -1.230365799264593  1.2303657992645929  1.867730794844023e-16 
H  -1.8100950507259972  1.8100950507259972  2.7755575615628914e-16 
O  -1.2303657992645929  -1.2303657992645929  0.0 
H  -1.8100950507259972  -1.8100950507259972  -5.551115123125783e-17 
