89

Pd  0.0  0.0  0.0 
O  0.2925497701854889  2.0223027061674794  -9.250875493921133e-15 
O  4.446653087684408  2.7966880335282367  -0.06254264395465395 
N  0.29373687749674715  -2.0377360178813726  1.1140144671362965e-14 
N  1.8137133523177644  0.015433311713893172  -1.899677518297693e-15 
N  2.452386447053555  1.2264259001286986  -0.042485513590125035 
C  -0.5167414185695625  -3.0858977138533326  -0.04353711867630114 
C  -0.06128344739275571  -4.395622451456219  0.03173823055938704 
C  1.2786534512680667  -4.61755054435195  0.1980664578417197 
C  2.127527365486312  -3.5484644642809355  0.23823212923147347 
C  1.6251629872786226  -2.26924164090985  0.1412615683662795 
C  2.447401681011656  -1.0794928444383198  0.1535689573152141 
C  1.561630617484426  2.2099437847216943  -0.04781400064857395 
C  2.122534900075088  3.5742888513743463  -0.10367521144843207 
C  1.2948560619065146  4.687445033759923  -0.13121326629411947 
C  1.7946720693047036  5.9620660157184195  -0.19802031008213467 
C  3.1671814365970956  6.143142610271569  -0.2343009330050105 
C  4.017467764411973  5.086298767017636  -0.19078470950910026 
C  3.5201350262417934  3.783844279082072  -0.11735804949612907 
H  -1.509763839719523  -2.8962628388795766  -0.03063071378725456 
H  -0.6457893758787387  -5.104467663747981  -0.022447972258174128 
H  1.6390588419497023  -5.481101869455891  0.145996281359951 
H  3.0245749788737974  -3.6231628425065394  0.31479570808121127 
H  3.446904540016752  -1.1302650874781308  0.2241298117413227 
H  0.3528262641608264  4.7181915729001185  0.036897323765275956 
H  1.1986185379798384  6.708470953322804  -0.11120898066624502 
H  3.502965965034555  7.018125262832587  -0.24814138745267997 
H  5.029077369614576  5.194587852181836  -0.3303780141341162 
H  4.022591215682354  2.019203479439857  -0.06615330429653936 
N  0.45250072158034366  -2.1033376801310933e-15  -1.8610487828021243 
C  1.7320288582640098  0.09100171970865135  -2.322704839239125 
H  2.4362920571150903  0.05348505584022266  -1.714655115387321 
C  2.003893547448843  0.22872605472852803  -3.625794187026846 
H  2.8903237074652184  0.2492695396092581  -3.9069639340521816 
C  0.9865846800380007  0.34581784275884275  -4.568269476603791 
C  1.2424710399173915  0.5097552994369291  -5.949730855407298 
H  2.1221126649211888  0.5042643216792071  -6.250719344761811 
C  0.2377645083438933  0.6726488369161588  -6.8451529742211505 
H  0.42269018895734534  0.7281786921940884  -7.755087827835661 
C  -1.0647198053302342  0.7563223006083508  -6.388686738770339 
H  -1.7522812244381447  0.9260192237602677  -6.992695471511107 
C  -1.358903027348484  0.5934109732108949  -5.06389419980865 
H  -2.2441667622795656  0.6639367449930852  -4.786735679949678 
C  -0.36203286898684284  0.32042572845869144  -4.103551920454243 
C  -0.6032647479711878  0.08827493265657851  -2.7161882916351088 
C  -1.8982027519227724  -0.05179511299575271  -2.0268513941511257 
C  -3.1491717013121634  -0.26319087667552504  -2.618125965532215 
H  -3.20725252163871  -0.3780564038259272  -3.539934914817623 
C  -4.300116968860664  -0.3045263671551438  -1.8509552098757678 
H  -5.12546705323392  -0.3970322061890413  -2.2713245807506 
C  -4.247866596229152  -0.20937962753243283  -0.47794920242384054 
C  -3.0077524569110174  -0.08386677407336494  0.12320660523315496 
H  -2.962163760692918  -0.052467472792528086  1.050268741584452 
C  -1.8125007215803437  -3.277198520871647e-16  -0.618951217197876 
C  -5.5103588246902975  -0.26776522966984834  0.3403948783503885 
H  -5.291373316836416  -0.1907141721111016  1.27208549860962 
H  -5.9551816527214925  -1.104371463793583  0.18524775240970004 
H  -6.089203574485454  0.45443779532387185  0.08776735347528164 
P  -2.059766701071024e-16  2.706761181832243e-16  2.3100000000000005 
C  -1.6899135076595948  0.027120664977996145  3.0750120888984664 
C  -1.7450056663196385  0.2955509120773583  4.596361551216823 
C  -2.4811921191573125  -1.2561738722835913  2.712411344799932 
C  1.0880725540633451  -1.2755834720977934  3.1210346064164 
C  1.3459429755859649  -1.1082689949814089  4.635367341138533 
C  0.612741015893261  -2.712258564217185  2.805761362222416 
C  0.736431559207585  1.6199292822585787  2.8442795701543253 
C  -0.05892216469710165  2.793740230386134  2.262814582449274 
C  2.218172291858094  1.7102073278028402  2.411942530685069 
H  -2.1083959482424675  0.7889020239935758  2.687554687394535 
H  -1.2567235616981018  1.0941142163400168  4.795047321697417 
H  -2.649523707831788  0.41505886171607886  4.866879614480949 
H  -1.3556594336387122  -0.4396693682124968  5.057226857513225 
H  -2.4359678308739934  -1.3995829281003036  1.7759088426895393 
H  -2.101489029950451  -1.998497702488405  3.1705656803210758 
H  -3.38810443816675  -1.1544779834268237  2.9700916541341056 
H  1.9354733239369972  -1.114592486088869  2.7241307671285755 
H  1.630259859196209  -0.22032412749326913  4.813551044084758 
H  0.5404373819808539  -1.2855946339028141  5.113597334397001 
H  2.019986899350472  -1.7218650128519903  4.913971479100468 
H  0.4615438232521788  -2.794465013972075  1.8782684573675312 
H  1.2797245926654055  -3.327670738686895  3.0758612027086687 
H  -0.1893999217383434  -2.8851928485842966  3.2771229426104713 
H  0.6867289534729171  1.667180999666546  3.7949849220826612 
H  -0.9671991150817996  2.7256032413236913  2.5405303942450326 
H  0.3081075011835457  3.605289995049895  2.575734226827402 
H  -0.007053803651463353  2.765982350637154  1.3105894288042546 
H  2.7053324466880726  0.975259670708468  2.775134236093553 
H  2.270040652903732  1.682449448053861  1.45971737704005 
H  2.5955544174688816  2.5278285223960344  2.726419196626251 
