31

Ru  0.0  0.0  0.0 
O  1.41922  1.32401  0.0 
N  1.289  -2.72838  0.14142 
C  2.64038  0.74607  -0.07602 
C  2.70998  -0.60391  -0.07666 
C  1.41922  -1.32401  0.0 
C  3.85609  1.61192  -0.15219 
C  2.44509  -3.55023  0.10545 
C  3.06008  -3.96671  1.30471 
C  4.19984  -4.77993  1.24329 
C  4.72321  -5.17313  0.00931 
C  4.11805  -4.75175  -1.1777 
C  2.98364  -3.93276  -1.14037 
C  2.33636  -3.46935  -2.42129 
C  2.52956  -3.50791  2.63812 
H  0.42374  -3.12463  0.52066 
H  3.65932  -1.12215  -0.1269 
H  3.56601  2.61502  -0.53277 
H  4.60812  1.18002  -0.84582 
H  4.28585  1.73076  0.86301 
H  4.69662  -5.10383  2.15223 
H  5.60453  -5.79844  -0.03132 
H  4.54737  -5.06036  -2.12323 
H  2.85331  -3.87946  -3.31234 
H  2.37064  -2.36114  -2.48196 
H  1.27551  -3.79755  -2.44463 
H  2.55648  -2.39735  2.68307 
H  3.14325  -3.89675  3.47792 
H  1.48374  -3.85114  2.77231 
Cl  -1.58392  1.58392  0.0 
Cl  -1.58392  -1.58392  0.0 
