48

Fe  0.0  0.0  0.0 
O  1.21313  -1.3707  0.0 
O  0.85751  2.68112  -0.00247 
N  1.21313  1.3707  0.0 
C  3.18818  0.0657  0.56724 
C  2.3731  -1.21185  0.75936 
C  3.227  -2.46796  0.70349 
C  4.55226  -2.43832  0.8892 
C  5.26427  -1.17131  1.07448 
C  4.64774  -0.00759  0.90931 
C  2.61103  1.22762  0.25695 
C  3.4449  2.54388  0.22019 
C  3.43949  3.18014  1.61401 
H  0.72681  2.93441  -0.94943 
H  2.74641  -3.42763  0.53563 
H  5.12791  -3.36408  0.8955 
H  6.33138  -1.18125  1.30772 
H  5.26173  0.88017  1.01788 
H  3.01824  3.27915  -0.49452 
H  4.46736  2.41285  -0.18373 
H  3.98709  4.14441  1.60061 
H  3.91347  2.50187  2.35335 
H  2.39751  3.38212  1.94906 
S  -1.34161  1.53186  0.0 
N  -1.34161  -1.53186  0.0 
N  -2.00613  -3.60801  1.20859 
N  -0.00611  -3.64094  -0.12539 
C  -0.92101  -2.77551  0.67895 
C  -2.43629  -3.09592  2.52494 
H  -1.84316  -2.21399  2.85716 
H  -2.34439  -3.8516  3.33324 
H  -3.5017  -2.79133  2.46636 
C  -1.33594  -4.90035  1.33484 
H  -2.04491  -5.75009  1.42924 
H  -0.65015  -4.88435  2.21747 
C  -0.46724  -5.00738  0.10964 
H  0.37704  -5.71974  0.24302 
H  -1.11294  -5.35746  -0.72478 
C  0.19958  -3.37529  -1.57166 
H  -0.47052  -3.95492  -2.23731 
H  1.2494  -3.64612  -1.82731 
H  0.07883  -2.307  -1.84742 
C  -2.73821  0.41576  -0.39669 
H  -3.68393  0.90945  -0.08594 
H  -2.76307  0.25263  -1.49524 
C  -2.61625  -0.91386  0.35519 
H  -3.45927  -1.57905  0.06421 
H  -2.65734  -0.68196  1.43546 
