66

Pd  0.0  0.0  0.0 
C  3.0294379169576224  0.7294581554360193  0.34436675163672875 
H  3.373517203499911  0.3204487553093158  -0.48888731236810146 
H  3.689197003283367  1.4009563643084877  0.6506325079525499 
P  1.4376850585229017  1.5572930592858873  0.0 
N  2.8804879124411693  -0.30955105696101537  1.37227900601872 
C  2.4237527799372716  -1.5289436489184864  0.9361798597046025 
N  1.4376850585229017  -1.5572930592858873  0.0 
C  1.1509046227056465  -2.7437506396254947  -0.5852586451195395 
H  0.5258164685042385  -2.753285180931939  -1.299988707450178 
C  1.7179028163679404  -3.9339514043100405  -0.1983095035931245 
H  1.5020231251780682  -4.743463732437979  -0.6463466443980522 
C  2.610277956729221  -3.9235594039710553  0.8581890648839816 
H  2.9652668747128983  -4.740139136615035  1.189633869253977 
C  2.981006693599059  -2.730199847194893  1.42591872053878 
H  3.6061383487756093  -2.712233556371746  2.141284162875966 
C  3.8665645176238663  -0.2688295693631191  2.452736866908812 
H  3.528888027406044  -0.7738796884207763  3.222394943715685 
H  4.024533681629486  0.6623344985387534  2.7163051348619396 
H  4.706665440983736  -0.6674864928613119  2.143693640293381 
C  1.7830319343820809  2.513550782339552  -1.5318526079341257 
H  2.7394514846338494  2.8014783835873307  -1.4845243886993984 
C  1.6513014733342146  1.602865961943364  -2.7701403949739913 
H  2.2298849764504203  0.8070988758380246  -2.656791223855726 
H  0.7156756470226595  1.2913064727984702  -2.8523239569715804 
C  2.0513050665861248  2.345369711064438  -4.034070902528403 
H  1.9090838805213135  1.758856729738473  -4.81908567752974 
H  3.014779382353278  2.5713321963537275  -3.9915784549770477 
C  1.239257363728954  3.6252521764200467  -4.2047616555282525 
H  1.5542568337042741  4.111402432780379  -5.006927238282877 
H  0.2849425754732209  3.3967119617971133  -4.339126179181364 
C  1.3806659238242678  4.518542611836173  -2.979735081479415 
H  0.8256748647325962  5.3300642277993955  -3.097671340334561 
H  2.3245750229000532  4.803859230535895  -2.886451107637598 
C  0.9445234336596543  3.784414457098072  -1.7159443904653253 
H  -0.013682121056628693  3.5437203868555156  -1.7838486573484924 
H  1.0601973331345682  4.375565438289851  -0.9304600071601722 
C  1.148136412268248  2.771124867453589  1.341197201358721 
H  0.38710017341895986  3.3504195060707285  1.0505813985750725 
C  2.3572625089462305  3.692977367495106  1.5572607579791793 
H  3.1283391141911965  3.161165419794155  1.8769002598034104 
H  2.609828807411996  4.117243337256102  0.6989377699484048 
C  2.017776797223255  4.77126440215897  2.5827758346171485 
H  2.8075104467208014  5.350205969787499  2.7278001226627393 
H  1.2829018417251765  5.3369235404613935  2.2369066121693297 
C  1.5973132884270675  4.145048572591742  3.905992779252562 
H  1.3338700515778121  4.859593865377072  4.538532529400085 
H  2.365280715147346  3.6587726237685616  4.29767911178503 
C  0.43075396549235556  3.179108699534202  3.7190802657289637 
H  -0.37252954969264174  3.6888249795027224  3.4446989832640114 
H  0.23102172651693387  2.738618172777113  4.583089720857248 
C  0.7302675969520509  2.1122595184546635  2.6697175832403057 
H  -0.07460742457230185  1.5542560618679646  2.5241326177957837 
H  1.458795879685473  1.5241599154037324  2.993125387952614 
Br  -1.654629867976521  1.654629867976521  0.0 
C  -1.35204078  -1.31992066  -0.4819701 
C  -1.63807002  -1.59921746  -1.81393823 
H  -1.15796809  -1.15933936  -2.50351594 
C  -2.63068217  -2.5263265  -2.14228996 
H  -2.83682226  -2.69439953  -3.05388981 
C  -3.31015444  -3.19615732  -1.16198741 
H  -3.99601236  -3.81199015  -1.38686634 
C  -2.99747104  -2.9701089  0.1242356 
H  -3.43865917  -3.46858118  0.80170842 
C  -2.03898543  -2.01594063  0.49125628 
H  -1.86191301  -1.84921651  1.41015686 
