35

Ru  0.0  0.0  0.0 
C  1.3507  -2.73207  0.01476 
H  0.38351  -3.21073  -0.02485 
C  2.43766  -3.50714  0.08521 
H  2.32758  -4.58687  0.10172 
C  3.78937  -2.89978  0.14367 
H  4.65234  -3.55511  0.21917 
C  3.95421  -1.56726  0.11467 
H  4.9605  -1.17248  0.16965 
C  2.75264  -0.68741  0.03533 
C  2.75011  0.66819  0.01057 
C  3.91653  1.43826  -0.00559 
H  4.89901  0.98902  -0.01073 
C  3.83562  2.82408  -0.03559 
H  4.76647  3.3732  -0.05889 
C  2.59174  3.49213  -0.02141 
C  2.57976  5.03169  -0.01418 
C  3.20746  5.56188  -1.32099 
H  4.26084  5.22672  -1.42632 
H  3.20407  6.67238  -1.33635 
H  2.63897  5.19458  -2.20065 
C  3.3956  5.54751  1.19283 
H  2.96475  5.1691  2.14487 
H  3.40012  6.65766  1.21963 
H  4.45626  5.22419  1.14323 
C  1.15211  5.61336  0.10038 
H  0.53489  5.32886  -0.77873 
H  1.18205  6.72283  0.14893 
H  0.65901  5.24882  1.02858 
C  1.40699  2.70904  -0.00673 
H  0.4411  3.17493  -0.00488 
C  1.485  1.3098  0.0 
N  1.485  -1.3098  0.0 
Cl  -1.58392  1.58392  0.0 
Cl  -1.58392  -1.58392  0.0 
