67

Pd  0.0  0.0  0.0 
C  3.2540705575670463  1.109803734447016  -0.1747861990458043 
H  3.431366520358096  1.1294945848748152  -1.1378364947144386 
C  3.6269577799432127  -0.31804613070469706  0.28444592306111965 
H  4.573479649735106  -0.4482868574398733  0.11432266449499745 
H  3.502544663465088  -0.36141894469968877  1.2471813100986857 
C  2.9032986603482733  -1.467019184718456  -0.3116825444502039 
H  3.3036594753243804  -2.2870906700954228  0.04852507165929404 
C  4.180744934472522  2.1197134596349434  0.41882515205668375 
H  3.967010957413687  2.2397214466695443  1.3487588970614228 
H  4.083534114253984  2.9540791259825365  -0.04141049546834433 
H  5.0848540247640965  1.810412995766607  0.33678354125479404 
C  1.0985683978839593  1.9747824753902272  1.6522375028579261 
C  -0.082936823391629  2.6887849456735364  1.8569333126046652 
H  -0.6183754024366421  2.9090502344618  1.1323084299065176 
C  -0.4708503229422647  3.0593830255664365  3.1251100313809177 
H  -1.2363145139005542  3.571120031060047  3.256505958140567 
C  0.2830032078080973  2.680222874781767  4.150382933701168 
H  0.04009675548449798  2.9696707527208477  5.001364097638525 
C  1.3766859114671541  1.895477786068116  4.035012749264928 
H  1.8234840549545388  1.575477390006272  4.783786370258966 
C  1.8128111832173672  1.587715504276899  2.7413704164513018 
H  2.6036253956599222  1.1118933663943509  2.6255558469889535 
C  1.3901064894882835  2.995023980929644  -1.0213572741265287 
C  1.212594695087323  2.887660585297002  -2.309041631462129 
H  1.073839867951228  2.0459888304833025  -2.6769590340068596 
C  1.227159213067565  4.0198966167131545  -3.1740521539293525 
H  1.1176823707620844  3.947687190353919  -4.094814538990656 
C  1.4116819546725663  5.172701027853795  -2.568842572474092 
H  1.3741379838727656  5.94300752558891  -3.1007189207014325 
C  1.632559373543141  5.3409627719564625  -1.2694875781385784 
H  1.8058753398044454  6.1886648114396925  -0.9283638936854351 
C  1.6021311900421853  4.207024035788335  -0.4029921608014267 
H  1.7222603378957662  4.286045823700366  0.5141632703394332 
C  3.0333342167313604  -1.5212625774188488  -1.7868710945767698 
H  2.625199616024769  -2.3257601455321812  -2.115306888310955 
H  3.9637247898417765  -1.5132991794563186  -2.025026560103382 
H  2.5963045652075665  -0.7590627357107755  -2.173303113163717 
C  1.265071655948224  -1.9170429410922525  1.374455119192301 
H  0.30776049775730785  -1.90320047420267  1.5349281777210886 
H  1.6593507849368874  -1.2440383879764414  1.9508866848870878 
C  1.7694468262810075  -3.2408063387040262  1.8249387090100901 
C  2.672580144134357  -3.362496778796007  2.8104912986639605 
H  2.969035149734313  -2.610837887851561  3.2687703526462473 
C  3.165475240567229  -4.653556781346933  3.1617410441807836 
H  3.7642517792051056  -4.765920273370506  3.8641536525792777 
C  2.7387285558834935  -5.690663870339577  2.4358890943503324 
H  3.0804752301108436  -6.5336640211243715  2.626121127487153 
C  1.8747096099676257  -5.5833865924066055  1.4892725633633914 
H  1.6275479033173816  -6.340563371679762  1.0111921562190809 
C  1.3125028632502018  -4.36932767705415  1.1620602408591254 
H  0.6457878259260269  -4.3076450073973405  0.5151881999809854 
N  1.4867808513698308  -1.5104908804756156  7.9299737641405e-16 
H  1.1982254700134511  -2.3060937043877994  -0.49450151513745694 
P  1.4867808513698315  1.5104908804756148  1.4808512519597407e-16 
Br  -1.654629867976521  1.654629867976521  0.0 
C  -1.3788582233137676  -1.3788582233137676  0.0 
C  -2.618821778986925  -1.1522995256591737  0.5874691967409313 
H  -2.8106553971707884  -0.30966242518610043  0.9782000501948407 
C  -3.5854032518711887  -2.161278806785389  0.6049610958635797 
H  -4.421117162155692  -2.007227978208148  1.0287619599160838 
C  -3.3399450833386255  -3.3715361338635086  0.016423527177974573 
H  -3.9908757182151104  -4.061238805801311  0.045080339651694 
C  -2.164680252095028  -3.57422256025893  -0.6007549227026177 
H  -2.0132444416912625  -4.3986257169530365  -1.0474288760065327 
C  -1.1561711193052586  -2.601214672555715  -0.5998012209931929 
H  -0.3196784027493984  -2.7832859823079534  -1.0129111498427692 
