27

Ru  0.0  0.0  0.0 
O  6.14553  3.37768  0.13876 
O  4.77161  5.09116  0.24924 
N  1.43308  1.33712  0.0 
N  1.43308  -1.33712  0.0 
C  1.34037  2.7526  0.01164 
H  0.38864  3.26446  -0.00844 
C  2.4675  3.47581  0.05975 
H  2.37707  4.55743  0.07442 
C  3.82319  2.82024  0.08755 
C  3.90233  1.4442  0.05379 
C  5.10944  0.68816  0.06531 
H  6.08409  1.13569  0.09864 
C  5.09356  -0.71918  0.02927 
H  6.03475  -1.25634  0.03108 
C  3.87864  -1.41907  0.00071 
C  3.8189  -2.76717  -0.03094 
H  4.72823  -3.3618  -0.04368 
C  2.50139  -3.4703  -0.04172 
H  2.46883  -4.55478  -0.06526 
C  1.35702  -2.76117  -0.01727 
H  0.40987  -3.2827  -0.02238 
C  2.69188  -0.68906  0.00321 
C  2.69857  0.70648  0.01513 
C  4.99131  3.76463  0.15558 
Cl  -1.58392  1.58392  0.0 
Cl  -1.58392  -1.58392  0.0 
