34

Ni  0.0  0.0  0.0 
P  1.343618531243151  -1.508240445850727  2.8264194628116103e-15 
N  1.3436185312431501  1.5082404458507275  -1.8470618343556704e-16 
H  0.9001601341826995  2.310127869256756  -0.08456122196267626 
H  1.8391495565687992  1.5719537949154365  0.7723893720725903 
C  0.7028026841849596  -3.031314725100864  -0.7197604254512708 
H  0.13351360419502667  -2.815683652552244  -1.4866594891850604 
H  0.17674538882216395  -3.5139221349488547  -0.0470923721326867 
H  1.4499522582907018  -3.5928733925733205  -1.0144086681071274 
C  2.3594378092882478  -2.0601112614689283  1.3889579897249995 
H  2.750478784462503  -1.2818319968932474  1.8385466929486272 
H  3.0770424567519377  -2.640100723630969  1.0583597384901928 
H  1.8027776691116373  -2.5592995156171763  2.022963380284881 
C  2.5593731383758134  -1.0154243852253626  -1.2593140893460417 
H  3.2452081605291614  -1.7263231036291242  -1.3267331857492357 
H  2.1003110917417094  -0.963016166617078  -2.134736150961152 
C  3.260137537900227  0.303565962416389  -1.0074296730216288 
H  3.67082429579694  0.28464099585782443  -0.10732718856273742 
H  3.9883504874342877  0.41453281485721294  -1.670008247826395 
C  2.3289086208008154  1.4868817559358511  -1.0978652675918938 
H  2.8609252083077044  2.3211825953422878  -1.0728988905369612 
H  1.8494880490446826  1.4571642462885617  -1.9637398052689161 
Br  -1.5839191898578664  1.5839191898578664  0.0 
C  -1.29374738  -1.23987949  -0.45980057 
C  -1.6015622  -1.49386547  -1.79197911 
H  -1.13094174  -1.04282176  -2.48087966 
C  -2.60218399  -2.41188997  -2.12154241 
H  -2.82315865  -2.56261387  -3.0327005 
C  -3.26832081  -3.09759503  -1.14306437 
H  -3.95960209  -3.70719172  -1.36832808 
C  -2.93474499  -2.89608732  0.14198827 
H  -3.36683509  -3.40560694  0.81710224 
C  -1.96755092  -1.95161757  0.51124219 
H  -1.77552984  -1.8022912  1.43013249 
