100

Fe  0.0  0.0  0.0 
C  -1.15202  2.40205  0.22129 
C  -2.26123  3.12051  0.61949 
H  -2.28859  4.13513  0.99545 
C  -3.31991  2.20086  0.61389 
H  -4.32267  2.37808  0.98274 
C  -2.78912  0.97278  0.22354 
C  -3.42307  -0.37135  0.31789 
C  -2.55206  -1.58488  0.19112 
C  -3.01962  -2.87311  0.34967 
H  -4.03521  -3.18182  0.56149 
C  -1.93237  -3.69412  0.25654 
H  -1.94343  -4.76876  0.38399 
C  -0.83375  -2.87864  0.04346 
C  0.56781  -3.38008  -0.02266 
C  1.73559  -2.45766  0.02305 
C  3.04397  -2.87285  0.1902 
H  3.40324  -3.88801  0.29962 
C  3.80584  -1.74165  0.26845 
H  4.87029  -1.70848  0.459 
C  2.9392  -0.67148  0.151 
C  3.35744  0.76348  0.3517 
C  2.31425  1.82267  0.25704 
C  2.39758  3.14094  0.70758 
H  3.27479  3.62261  1.12308 
C  1.09814  3.66516  0.70117 
H  0.78172  4.61926  1.10434 
C  0.29534  2.63878  0.2503 
C  -4.85103  -0.50456  0.81437 
C  -5.89793  -0.24014  -0.0861 
C  -7.23194  -0.3213  0.35361 
H  -8.03418  -0.10138  -0.33916 
C  -7.53186  -0.69976  1.67415 
C  -6.49906  -0.9742  2.56102 
H  -6.73595  -1.24663  3.58748 
C  -5.17097  -0.85867  2.15714 
C  -5.5927  0.12057  -1.5151 
H  -6.51207  0.38964  -2.07195 
H  -5.11652  -0.75399  -2.0092 
H  -4.89445  0.98314  -1.56497 
C  -8.93794  -0.78429  2.16364 
H  -9.64533  -0.46306  1.3796 
H  -9.04636  -0.12456  3.05039 
H  -9.14192  -1.8311  2.45472 
C  -4.12733  -1.07044  3.18862 
H  -3.41288  -1.87732  2.91906 
H  -4.53787  -1.29553  4.19678 
H  -3.7012  -0.06771  3.25225 
C  0.81953  -4.82333  0.26345 
C  0.56413  -5.35112  1.53554 
H  0.17254  -4.72172  2.32546 
C  0.82115  -6.67985  1.79464 
H  0.61658  -7.07495  2.7888 
C  1.34472  -7.52759  0.76897 
C  1.58379  -6.98858  -0.49283 
H  1.98338  -7.60497  -1.28197 
C  1.32656  -5.6392  -0.74584 
H  1.52733  -5.22477  -1.72572 
C  1.53393  -9.46864  2.20529 
H  2.20353  -8.97005  2.94014 
H  1.84841  -10.52347  2.0914 
H  0.4846  -9.44051  2.56964 
C  4.76042  1.07368  0.84002 
C  5.61451  1.79304  -0.0109 
C  6.94496  2.01716  0.36797 
H  7.60834  2.57344  -0.27935 
C  7.42723  1.53077  1.59259 
C  6.58082  0.85352  2.45805 
H  6.95373  0.51034  3.41404 
C  5.25781  0.63141  2.10891 
C  5.11075  2.35303  -1.31477 
H  4.57474  1.57211  -1.89114 
H  5.934  2.75821  -1.93487 
H  4.40751  3.18476  -1.09836 
C  8.85015  1.73382  2.00188 
H  9.35191  0.73811  2.00332 
H  8.89256  2.16349  3.02675 
H  9.37802  2.40149  1.29838 
C  4.3882  0.00793  3.13039 
H  3.94753  -0.95699  2.80671 
H  3.65497  0.80337  3.30688 
H  4.88554  -0.14321  4.11211 
N  -1.49352  1.1377  -0.00917 
N  -1.20502  -1.58244  0.00809 
N  1.66297  -1.11391  -0.00806 
N  1.03558  1.55865  0.00914 
O  1.63907  -8.83527  0.99123 
P  0.01937  -0.03561  3.52418 
F  -1.6366  -0.11416  3.56683 
F  0.04079  -0.02331  5.25507 
F  -0.07742  1.69863  3.5424 
F  0.0  0.0  1.8 
F  1.68396  0.05625  3.5331 
F  0.12224  -1.73175  3.52276 
N  0.0  0.0  -1.87 
N  -0.91483  0.44514  -2.84356 
H  0.89765  0.50259  -2.06614 
H  0.26784  -0.98285  -2.11731 
H  -0.32723  0.64105  -3.70741 
H  -1.44279  -0.39092  -3.19336 
