67

Pd  0.0  0.0  0.0 
C  1.81243  -2.29001  0.10447 
C  2.6434  1.16769  0.13476 
H  3.72382  1.17176  0.21209 
C  1.84861  2.36489  0.07935 
C  2.40364  3.57896  0.10961 
H  3.48277  3.69243  0.17346 
C  1.5483  4.77261  0.05957 
H  2.02384  5.74787  0.0828 
C  0.21662  4.651  -0.0428 
C  -0.64186  5.87475  -0.12017 
H  -0.20514  6.89504  -0.09545 
C  -2.11532  5.63835  -0.2763 
H  -2.78231  6.48961  -0.33682 
C  -2.6142  4.39699  -0.34704 
H  -3.68213  4.24815  -0.45898 
C  -1.74313  3.20793  -0.27474 
H  -2.2281  2.27675  -0.36416 
C  -0.41796  3.29858  -0.11004 
C  3.76743  -3.81347  0.47313 
H  3.95188  -4.90312  0.57708 
H  4.35243  -3.41958  -0.38306 
H  4.07681  -3.30584  1.41189 
N  1.91489  -0.02263  0.0 
N  2.54152  -1.23617  0.0908 
N  2.36449  -3.58834  0.24911 
H  1.72726  -4.39917  0.23218 
N  0.44013  2.15284  0.0 
S  0.04498  -2.13022  0.0 
N  -1.99289  0.0  -0.00711 
N  -2.43477  -0.39819  -2.42328 
N  -0.00711  0.0  -1.99289 
C  -2.61563  0.4839  1.2519 
H  -2.1055  0.63598  2.20521 
C  -4.08545  0.56019  1.36916 
H  -4.51312  0.81866  2.33496 
C  -4.84345  0.34522  0.31507 
H  -5.91806  0.44838  0.41544 
C  -4.22258  -0.0033  -0.97405 
H  -4.88374  -0.07363  -1.83147 
C  -2.88464  -0.18317  -1.11793 
C  -1.10194  -0.29929  -2.91367 
C  -0.98296  0.25475  -4.32669 
H  -1.84669  0.30843  -4.9812 
C  0.20392  0.63514  -4.80621 
H  0.32385  0.98511  -5.82716 
C  1.3757  0.58986  -3.94386 
H  2.35621  0.84323  -4.34349 
C  1.25693  0.30036  -2.64957 
H  2.20019  0.35509  -2.15685 
N  0.0  0.0  1.91 
C  -0.28785  -1.18291  2.73899 
C  -0.17323  -1.03206  4.2179 
C  0.15053  0.14441  4.77754 
C  0.39637  1.3002  3.93526 
C  0.32653  1.21681  2.61418 
C  0.26091  0.38701  6.25543 
C  -0.36447  -0.70645  7.1026 
H  0.62236  2.26397  4.38621 
H  -0.60747  -2.16481  2.35988 
H  -0.36175  -1.92173  4.80084 
H  0.49314  2.16867  2.17811 
H  1.33345  0.53772  6.50557 
H  -0.28603  1.32683  6.49012 
H  -0.25816  -0.44  8.1693 
H  0.13456  -1.67884  6.92237 
H  -1.44564  -0.77551  6.84398 
