25

Co  0.0  0.0  0.0 
O  4.859439423591146  1.1487821433495322  -0.07787606163366045 
O  3.4501333940578016  2.3621890019183  -1.2723060180142218 
N  1.23426496142441  1.3375313099139017  0.0 
H  1.1762576820605235  1.6815930500683234  -0.8185519803303438 
H  1.1382337822278101  1.9984166054191712  0.588383283928964 
N  1.23426496142441  -1.3375313099139021  0.0 
H  1.4000671918834682  -1.754371701512577  0.7684662896358407 
H  0.966340539443185  -1.9456086266627364  -0.5921005074829548 
C  3.7334057786652943  1.4780472728726297  -0.4313527439978059 
C  2.5580791175385027  0.6884994827218491  0.18017587897302068 
H  2.7227079193821213  0.5646530435602399  1.1390112230809404 
C  2.478568620502057  -0.6791106034433464  -0.4875761656365406 
H  2.4510590385913913  -0.5804007870664128  -1.4528255349986459 
H  3.253640421779796  -1.2128474997003413  -0.2547841588191933 
C  -1.3152186130069785  1.3152186130069785  0.0 
H  -0.6495199803430409  1.6962841713332992  0.5951204085954485 
H  -0.9599851374477317  1.3834789675349293  -0.8990352394883178 
C  -2.465649396204062  2.1509445234565856  0.0653253830889467 
H  -3.1804531296608394  1.7503927465423887  -0.4351780800830183 
H  -2.257170981584706  3.0110827177451807  -0.30712371056514465 
H  -2.734740998366073  2.255336496994069  0.9808912384520841 
O  -2.94960275437571  -2.9500671216195853  0.0006680144186237413 
N  -1.2869343417595167  -1.2869343417595167  -2.137465431202609e-16 
C  -2.107362083141391  -2.1068977158975146  -0.0006680144186244075 
