91

Pd  0.0  0.0  0.0 
O  0.0098  -1.88808  0.0 
O  0.3291  1.91123  0.0 
O  1.27271  -6.41441  -0.46288 
N  2.06109  -0.02315  0.0 
N  3.87641  1.56259  0.29395 
C  2.3827  -2.45457  0.20747 
C  1.02192  -2.78884  0.02678 
C  0.67433  -4.13332  -0.17568 
H  -0.36999  -4.40097  -0.28572 
C  1.65606  -5.12913  -0.26417 
C  3.01092  -4.76689  -0.16903 
H  3.80587  -5.49099  -0.28085 
C  3.36522  -3.44932  0.07107 
H  4.41865  -3.20489  0.1378 
C  2.87306  -1.08617  0.53182 
H  3.91116  -0.96938  0.13677 
C  2.55312  1.28563  0.14889 
C  1.61153  2.28839  0.1401 
C  2.01693  3.61364  0.29709 
H  1.28692  4.41063  0.31195 
C  3.38337  3.89412  0.44292 
H  3.72542  4.91185  0.56326 
C  4.31006  2.84173  0.43176 
H  5.36861  3.0356  0.53346 
C  2.15375  -7.46649  -0.59497 
H  2.78452  -7.31252  -1.49734 
H  1.59062  -8.41272  -0.70014 
H  2.79959  -7.53299  0.30842 
N  -1.9402  0.0  -0.0598 
N  -0.0598  0.0  -1.9402 
N  3.16322  -1.05333  -3.48405 
C  -2.96346  -0.4077  0.95659 
C  -4.40725  -0.17607  0.62015 
H  -5.16672  -0.25477  1.39568 
C  -4.7748  0.05249  -0.62626 
H  -5.82714  0.14848  -0.86613 
C  -3.75977  0.14944  -1.67561 
H  -4.12702  0.24736  -2.68568 
C  -2.43795  0.12608  -1.38575 
C  -1.41063  0.18716  -2.43025 
C  -1.70585  0.07538  -3.90241 
H  -2.71173  0.14034  -4.29144 
C  -0.71324  -0.1169  -4.75445 
H  -0.91327  -0.20214  -5.8165 
C  0.65427  -0.24768  -4.26555 
H  1.41561  -0.41398  -5.01923 
C  0.95744  -0.20067  -2.94333 
C  -2.74845  -0.5351  2.43777 
H  -2.03786  -1.36944  2.59115 
H  -3.64418  -0.86212  2.99642 
H  -2.50289  0.47878  2.8127 
C  2.33156  -0.4247  -2.53509 
H  2.76107  0.5267  -2.18851 
H  2.18676  -1.22003  -1.83273 
C  3.0769  -2.41559  -3.84097 
N  4.80693  -1.4908  -4.92891 
C  4.04951  -2.67391  -4.6983 
C  4.08312  -0.38923  -4.34787 
C  2.03254  -3.37368  -3.31269 
H  2.27948  -3.57502  -2.27698 
H  2.00728  -4.3463  -3.83836 
H  1.01572  -2.92451  -3.31702 
C  4.29119  -4.0011  -5.33925 
H  5.15081  -3.9367  -6.02932 
H  4.49279  -4.77147  -4.56618 
H  3.38507  -4.27963  -5.91909 
C  5.91069  -1.37298  -5.83144 
H  6.72911  -2.04485  -5.49762 
H  6.28428  -0.33447  -5.85441 
H  5.55477  -1.65328  -6.84033 
C  4.77779  0.86645  -3.80382 
H  3.98085  1.63994  -3.70779 
H  5.47452  1.27178  -4.55869 
H  5.28027  0.76057  -2.81864 
S  0.0  0.0  2.23 
F  -2.05044  1.30847  8.03286 
F  -3.32734  0.78438  6.25206 
N  0.97227  -0.66404  4.62015 
N  -0.97865  0.63414  4.64895 
C  -0.0089  -0.04758  3.98139 
C  -1.00208  0.63063  6.00259 
C  0.01678  -0.02326  6.7116 
C  1.02227  -0.67725  5.97743 
C  2.14807  -1.38529  6.64357 
C  -2.13589  1.35873  6.65684 
H  0.04072  -0.02268  7.79256 
H  2.82374  -1.81906  5.87892 
H  1.74681  -2.20005  7.27817 
F  -2.11678  2.68208  6.24664 
H  2.72255  -0.6584  7.25728 
