46

Pd  0.0  0.0  0.0 
P  1.5557815511825557  -1.4393205914597345  1.3392701840487583e-15 
N  1.555781551182556  1.4393205914597345  4.577866939722741e-17 
N  2.950525699860518  -0.49098465567236316  -0.042692535915760534 
C  1.5402418686750512  2.7872355323780753  -0.027677072039335684 
H  0.7068968286898917  3.2414985602813293  -0.019039606420349672 
C  2.7206283510956117  3.529841398883462  -0.06784383878282713 
H  2.669992996166746  4.478154052852869  -0.07993065609443264 
C  3.9676031433540055  2.9195659152893856  -0.08972674526649022 
H  4.7668182078449295  3.433039629474538  -0.0957926773190387 
C  4.0049447459148935  1.5239688975584023  -0.10324039830961697 
C  4.999211242336565  0.47351488198247305  -0.09909971554046766 
H  5.941244574916884  0.5945581269924745  -0.1194848362195683 
C  4.348127622199006  -0.7170061042157125  -0.061234150573476726 
H  4.766486583587572  -1.5704737731206397  -0.04868036389910148 
C  2.7659823959158243  0.8740967977982246  -0.06535096392403814 
N  1.5270110974574909  -2.475746095861845  -1.3068170204039025 
C  2.266850833289965  -3.649603567244561  -1.4987386506656508 
H  2.8093693836311933  -4.0816365616237675  -0.8492206722359542 
C  2.070741173912029  -4.059184072448145  -2.7787624399976516 
H  2.4432650265591818  -4.835626330435021  -3.180887805053352 
C  1.2080219239121515  -3.1210287559661234  -3.4111229999918495 
H  0.9076564175945852  -3.160653378401462  -4.31245844360401 
C  0.8875823848423837  -2.160780731168331  -2.5093221058513016 
H  0.3295033234122484  -1.4088571802779828  -2.666019313260086 
N  1.8572408988913918  -2.4713192745978367  1.282699029266108 
C  1.1506330557783346  -3.65460386741584  1.5330665360449776 
H  0.7181908768054136  -4.191783040414304  0.879208387864615 
C  1.187831413291679  -3.9037406560699415  2.866175021029377 
H  0.8045894743899136  -4.653613656153533  3.3059927673885556 
C  1.9043161796602692  -2.8375849996406153  3.491912918096142 
H  2.0770727968543934  -2.749193927662013  4.422645892482516 
C  2.293740035528138  -1.974476313242895  2.521281378352127 
H  2.779985341649314  -1.1701497915012056  2.6563768952948914 
Br  -1.654629867976521  1.654629867976521  0.0 
C  -1.35204078  -1.31992066  -0.4819701 
C  -1.63807002  -1.59921746  -1.81393823 
H  -1.15796809  -1.15933936  -2.50351594 
C  -2.63068217  -2.5263265  -2.14228996 
H  -2.83682226  -2.69439953  -3.05388981 
C  -3.31015444  -3.19615732  -1.16198741 
H  -3.99601236  -3.81199015  -1.38686634 
C  -2.99747104  -2.9701089  0.1242356 
H  -3.43865917  -3.46858118  0.80170842 
C  -2.03898543  -2.01594063  0.49125628 
H  -1.86191301  -1.84921651  1.41015686 
