87

Pd  0.0  0.0  0.0 
O  0.46721065765439485  -1.9653365211583882  -1.0972568240725679e-14 
N  2.0229349763824542  0.013795820075545362  8.408249910845848e-15 
N  2.636283262663265  -1.2293429400557168  -0.034842399109420205 
H  3.4866567801962836  -1.3570930535578813  -0.050612915229873545 
N  -0.09014563403684894  1.951540701082843  2.536562754264203e-15 
C  1.7286806856425785  -2.1907994174948593  -0.039025003050133684 
C  2.1936295748037185  -3.603205639956347  -0.0793751358862489 
C  0.9574865366517162  2.848151366275436  0.005814636812301195 
C  3.544164343185379  -3.95000380406052  -0.02710504150840078 
H  4.194295151068332  -3.284376647970073  -0.005297434661152858 
C  -1.3226463763779026  2.437565418919873  -0.05859824041886238 
H  -2.0259730616159866  1.8308202777556222  -0.04970231407122794 
C  0.7045025937650475  4.248854292724572  -0.02732335465277965 
C  2.3206291366793574  2.420420357529752  0.057462445548816556 
C  3.9193895350692003  -5.2754705812733675  -0.006965084191278662 
H  4.822064147751986  -5.4966590373096675  0.04629100028983583 
C  2.7849410059903628  1.0418135409385467  0.0046686649948313565 
H  3.703064398654808  0.898312622054001  -0.027579003473108155 
C  1.7691941223100607  5.170615904664773  0.039996551748593324 
H  1.5902718573071624  6.08236955106412  0.006687073161745581 
C  2.9763264235320293  -6.276711722151698  -0.06458691573527632 
H  3.2405769339217994  -7.168065887052969  -0.05202982722300043 
C  1.2443051799174316  -4.6177909866147075  -0.13980383453119005 
H  0.3406372115653187  -4.40287452268801  -0.17908546519502413 
C  -0.6337531871158324  4.6846637204342105  -0.12467461380388868 
H  -0.8213813132890373  5.59411030026365  -0.18208005522946483 
C  -1.6368831145243308  3.7928651527920567  -0.1335263644116849 
H  -2.5227036684233495  4.073229166945811  -0.1890372269309144 
C  3.048805265131567  4.746374647064314  0.1529248410149174 
H  3.7404812562963254  5.360649698073116  0.24646256043537362 
C  3.322182333624366  3.3799983076474085  0.12686937126398914 
H  4.208125525028043  3.1008454554769496  0.1580399781006529 
C  1.6372152979007015  -5.94960736933195  -0.14257906647349922 
H  0.9973589310169746  -6.622522718042621  -0.19669887087033947 
N  0.5231255749829289  1.5267598995572718e-16  -1.8997785411196704 
N  -1.8831255749829274  -1.1348729238301175e-16  -0.5802214588803302 
C  -0.2593843647932452  -1.7051106490042556  -3.5895336206516166 
C  -2.9421002090045243  -1.612284098100006  -2.2850909118041547 
C  -1.8412465501452633  -0.5920057255610366  -1.9865643396109305 
C  -0.4673098129924601  -1.0858200140645455  -2.181902714672625 
C  -2.732598535152198  -2.286618932153539  -3.637402547572764 
C  -1.332149404596617  -2.774573734176215  -3.856472956138493 
H  -0.32261805479240646  -1.0146854556346447  -4.255620636595965 
H  0.6107962534238123  -2.1064766914824657  -3.6389616655729444 
H  -2.9517202461923104  -2.282488571864169  -1.5930892873616784 
H  -3.795881704828646  -1.1784639106178334  -2.2702062780751686 
H  -2.047360790429729  0.08163728641839785  -2.6381283827895374 
H  -0.3197207846183219  -1.795527775061374  -1.5523403407298397 
H  -3.3449187837803795  -3.020109095412982  -3.7278701855520167 
H  -2.973053948823267  -1.6752212403935443  -4.337475805558564 
H  -1.2454787057570658  -3.097886454290466  -4.7564337136023935 
H  -1.1692138522605096  -3.5375599202416237  -3.3004243470598276 
H  0.30022177552720664  0.6542994378344534  -2.4305752176708513 
H  1.3395165471076158  -0.2988051729224266  -2.0020490122647625 
H  -2.0698275501242116  -0.5083006130340922  0.10801889831148948 
H  -2.738587119984643  0.09702536667552242  -0.7255821249656611 
N  1.062385327053642e-18  -1.3590969201419505e-16  1.9100000000000001 
C  0.0911608366280078  0.015918921475684595  3.315838148509398 
C  0.15753267464150733  1.2584409256130178  4.0355192573022105 
C  0.29139753510314426  1.236594914937786  5.405671606842641 
H  0.32940063388111285  2.0440374442727816  5.865268796025058 
C  0.36873345362777654  0.0698182352312312  6.117205264092178 
H  0.4664409866229324  0.08272708001615148  7.041526257969478 
C  0.2990254526646282  -1.1198415555905463  5.438461014242791 
H  0.3278121684950957  -1.9079227857332268  5.929105284247541 
C  0.18735552003400177  -1.2103256475465571  4.043192271222591 
C  0.06796819347906119  -2.508023507758458  3.3615514421494526 
H  -0.05669053203038571  -2.348739970221484  2.4033713772221605 
C  -1.1061570638688252  -3.3549303101966284  3.873882270854609 
H  -0.9222367056537114  -3.647048950199435  4.770237709281205 
H  -1.222456428443199  -4.119057670630335  3.3058946258866793 
H  -1.9082204922305732  -2.8262427917843493  3.868745661110272 
C  1.352502397649409  -3.35471613072207  3.561743925863131 
H  2.1241672244035463  -2.8068005424672697  3.405034757982294 
H  1.3505616580135003  -4.090957547588591  2.9443383787386814 
H  1.3765386977882565  -3.6929314888473135  4.460565241700628 
C  -0.01074634020032262  2.5643956073865417  3.320853991378592 
H  0.3609469502172981  2.4537739697163863  2.4212501390426344 
C  -1.5293458191786184  2.834901149804021  3.163461920522802 
H  -1.9551610904174535  2.0608517590725146  2.7879525258494087 
H  -1.6611986714004239  3.58671431859033  2.581381337956725 
H  -1.9106686988304793  3.02534403319177  4.023615174089267 
C  0.6738394658580242  3.7498232414830306  3.94707744867147 
H  0.25481821908789265  3.9544501133804277  4.785432133785528 
H  0.6032488068392172  4.506472988868123  3.360150094869172 
H  1.59943096721958  3.5432741962464527  4.093573880433883 
