100

Cr  0.0  0.0  0.0 
O  1.83263  -3.61822  0.20409 
N  1.85531  -0.01842  0.0 
N  0.23753  -1.98539  0.0 
C  -1.7135  -3.37255  -0.68871 
H  -2.33546  -2.47798  -0.56521 
C  -2.55661  -4.57893  -0.25595 
H  -3.46673  -4.65854  -0.88829 
H  -2.88922  -4.44773  0.7972 
H  -1.97844  -5.52362  -0.3332 
C  -1.35647  -3.45209  -2.18258 
H  -2.28715  -3.48812  -2.78914 
H  -0.76482  -4.3536  -2.43102 
H  -0.78433  -2.55479  -2.48984 
C  -0.4969  -3.18579  0.24541 
H  -0.84091  -3.12266  1.30452 
C  0.62358  -4.2874  0.14366 
H  0.50006  -5.04633  0.94464 
H  0.61854  -4.80897  -0.83355 
C  1.5954  -2.29847  0.10735 
C  2.46312  -1.29446  0.10824 
C  3.94796  -1.34009  0.14158 
H  4.47006  -2.28558  0.1093 
C  4.61733  -0.15822  0.14496 
H  5.70017  -0.16604  0.11366 
O  1.96745  3.55661  -0.35032 
N  0.30716  2.00381  0.0 
C  -1.60036  3.5069  0.5999 
H  -2.25437  2.60807  0.52551 
C  -2.42022  4.71961  0.16795 
H  -3.3112  4.82285  0.82852 
H  -2.77129  4.58988  -0.87406 
H  -1.81219  5.64546  0.24931 
C  -1.20258  3.70197  2.06599 
H  -2.10636  3.71782  2.70573 
H  -0.65836  4.63448  2.28875 
H  -0.51019  2.90586  2.32958 
C  -0.37258  3.24458  -0.32265 
H  -0.6814  3.1635  -1.38416 
C  0.76758  4.28305  -0.19531 
H  0.65976  5.10395  -0.93051 
H  0.83017  4.76338  0.80456 
C  1.66447  2.38811  0.36807 
C  2.5535  1.19001  0.18621 
C  3.89964  1.16354  0.22666 
H  4.46532  2.08258  0.3352 
C  -1.77292  0.13869  -2.96004 
C  2.44719  1.40893  -3.00128 
C  -4.79049  0.15515  -0.63798 
C  -5.11055  -1.25801  -0.17424 
C  -2.51591  0.08752  -1.77256 
C  -3.9249  0.14631  -1.86741 
C  -4.54327  0.23042  -3.13423 
C  -3.78796  0.24625  -4.28954 
C  -2.41579  0.20069  -4.21724 
C  -0.31811  0.1745  -3.05961 
C  2.00373  0.01546  -2.54752 
C  2.30897  -1.13033  -3.52916 
H  3.55392  1.43081  -3.13877 
H  1.93104  1.74774  -3.91172 
H  2.22627  2.13569  -2.21 
H  -4.30806  0.7461  0.17032 
H  -5.75147  0.65813  -0.87495 
H  -5.79377  -1.21341  0.69652 
H  -5.60248  -1.82329  -0.99587 
H  -4.20034  -1.78899  0.14436 
H  -5.62013  0.28224  -3.21785 
H  -4.25103  0.29865  -5.26725 
H  -1.83917  0.22279  -5.12927 
H  0.11353  0.17618  -4.08463 
H  2.81624  -0.22272  -1.89587 
H  3.41251  -1.19903  -3.69785 
H  1.99436  -2.09218  -3.06631 
H  1.84204  -1.00756  -4.51897 
N  0.58046  0.0  -1.93122 
O  -1.94046  0.0  -0.54878 
P  0.0  0.0  2.33 
C  1.04659  -1.0334  3.36776 
C  2.41859  -0.773  3.4824 
C  3.18838  -1.48027  4.41426 
C  2.59165  -2.44153  5.23685 
C  1.22533  -2.69914  5.12946 
C  0.4553  -1.99776  4.20664 
H  2.88471  -0.00049  2.88608 
H  4.24342  -1.26696  4.51776 
H  3.1825  -2.97388  5.97146 
H  0.75379  -3.42348  5.78249 
H  -0.60985  -2.18609  4.17767 
C  -1.00513  0.93117  3.49463 
C  -2.39049  1.07929  3.32725 
C  -3.11996  1.8691  4.22732 
C  -2.4722  2.50097  5.29636 
C  -1.09848  2.33376  5.47954 
C  -0.36707  1.55196  4.58401 
H  -2.89459  0.61671  2.48892 
H  -4.18163  2.01452  4.08257 
H  -3.03134  3.1274  5.97912 
H  -0.59473  2.82157  6.30491 
H  0.70097  1.44524  4.73087 
H  -0.98366  -0.99912  2.40647 
