70

Fe  0.0  0.0  0.0 
O  -2.002153830592372  1.6960673178142078  4.096435456614911 
H  -1.946344974487479  0.9431494949955628  4.416791857615882 
O  -0.010932389887341132  -1.1723789699238139  0.9324121952531133 
O  -2.286684992535788  -5.262852231315318  -1.7655997690235423 
H  -3.0337511155257113  -5.116620860546352  -1.4623724548121835 
N  -1.6507422635059152  -3.8805282089197717  2.6135931009585787 
O  -1.9210455983513037  -0.3380306349288207  -0.8223418948525607 
N  2.2514566011423867  -0.03395138966244264  -0.6241806024199764 
C  -1.3814913346474675  1.6828417641887545  1.2227402656006057 
H  -1.4394587577262672  2.4335679007651274  1.7694444778787952 
C  -2.501610212616945  0.7536679441149624  1.2360894717896143 
C  -1.2711756880424536  -4.554807850448067  0.33830996697032356 
C  -1.0820100285217071  -2.6940502704328204  2.379111851444631 
N  -4.7221718052991815  -0.9509532132334237  1.3491394741106253 
N  -0.3194786129037416  1.5443609945150771  0.5141103020194241 
C  -0.6912957161472054  -3.293349304520345  0.05612236075650509 
C  2.8117385336537906  -0.9817208691946975  0.37220012288960425 
H  2.5123101857593992  -1.8719039287658927  0.1701057762846053 
H  2.5130976541985937  -0.735425135552475  1.250814979756858 
H  3.770948095425957  -0.9503167460391002  0.34025943326527086 
C  -1.4105372237369882  -5.637357118028351  -0.7086028735423189 
H  -0.5352352728741538  -5.836632187175239  -1.0762163548405699 
H  -1.7476579183933818  -6.443313148178318  -0.2874960050406332 
C  2.5906117892204943  -1.7004576382820518  -2.5756590731471074 
H  3.1209622125492253  -1.7981108873941376  -3.381918356140419 
H  2.870394003699145  -2.3915236126846535  -1.955417788255168 
N  0.31262897831715697  -1.9154365620673128  -1.6975430412031163 
C  -3.4481859760371845  0.8480056569582383  2.3041268353873923 
C  0.6954435296278662  2.6012508416240046  0.6190849450391674 
H  0.4479752900847333  3.216233853140092  1.3277208853950224 
H  0.7286997662090083  3.098710191040084  -0.21233809313513577 
C  2.8895612921672273  -0.3297411916475861  -1.9528873030630045 
H  3.849941623470446  -0.24873420281650416  -1.8510698339997829 
H  2.607290263575823  0.35396143483744824  -2.5812277799984136 
C  -1.0182400108978193  -1.7107782276276715  3.486946322243423 
H  -1.3961795871765048  -2.097774495463308  4.279291963591676 
H  -1.5151070800967161  -0.9255347862175396  3.245909824450928 
H  -0.10358223375662945  -1.4732341990213746  3.6513093204779064 
C  -4.4986168104219395  -0.04571692952070271  2.303478305404532 
H  -5.093645364555592  -0.014966390781740543  3.018726013637755 
C  -3.264611422228027  1.8402789148823526  3.423158682477739 
H  -3.330503007868299  2.737672357958133  3.063444007677825 
H  -3.98053814478776  1.7258031288297564  4.067354244657828 
C  -0.5823012275969046  -2.3358441654582878  1.0709543912597843 
C  -0.07639166139979847  -3.0792931547265177  -1.2573175153667389 
H  0.04436372338717598  -3.8184620839379186  -1.8095392291135104 
C  1.113930553332346  -1.9226039709721092  -2.9273193558749226 
H  0.8086576120258385  -1.2200078178291163  -3.5216492952980865 
H  1.0098627935351077  -2.7727841788111767  -3.3816575180069464 
C  -1.7444598875372401  -4.775125070199294  1.605270755309752 
H  -2.1548480487636734  -5.5899438096934375  1.782348136401641 
C  -3.8724525380734285  -1.0368695893430024  0.3110024488478099 
C  2.7460453810055876  1.3463060880730873  -0.27517240195960846 
H  2.6256289356102824  1.9176843018810195  -1.0496129138544976 
H  3.6977890140014438  1.2927172243170435  -0.09798800441517244 
C  -2.718856293019139  -0.19770255901154282  0.21440695929823167 
C  -4.139639761887608  -2.0414675529149147  -0.7563517140323647 
H  -4.948008812268728  -2.5183406960210393  -0.5520050141079162 
H  -3.4064959655522893  -2.6592346626763295  -0.8050781133664512 
H  -4.2377901545710985  -1.5931773351670868  -1.6001122672035124 
C  2.0762158862023883  2.0124210574247154  0.9165717591325987 
H  2.6523936713671983  2.7217548022941545  1.2402718800347579 
H  1.9877502201383843  1.3590804793086906  1.6277104199540127 
N  0.005911147534625259  0.02851952234671179  -3.0491377288018944 
C  4.748681802749261e-17  2.1251289365363332e-16  -1.91 
C  -0.0005240438475530435  -0.0017638072163013163  -4.486687626461956 
H  0.8737254669060638  0.2854312144498482  -4.822689698594319 
H  -0.693981962720835  0.6025587858756644  -4.822392151648226 
H  -0.18513060787230184  -0.914745715455924  -4.793014627795678 
92

Fe  0.0  0.0  0.0 
S  0.4871830568576889  -2.29547491865536  -0.5774663962603965 
S  -1.731425264643985  0.0009581442219535138  -0.3477633847706734 
S  2.8757451366833946  0.015751048602428246  -0.3467083431138149 
S  0.6781792808666455  2.3106499315848774  -0.5775464817181404 
N  0.5660629269196504  -0.016133157151471206  1.5027762627492105 
C  -1.2184999056215255  -2.746745279641464  -0.3494487811434887 
C  -1.6701368978270499  -4.098848409170374  -0.31055463775821024 
C  -3.0395845780054347  -4.313204970540307  -0.15085061197395208 
H  -3.3472633538033336  -5.212077757926021  -0.14033143800708356 
C  -3.993382364401509  -3.300278539501678  -0.006632138922491577 
C  -3.537241864893216  -1.9968459653328392  -0.04304929564728891 
H  -4.151951348867309  -1.2784376510997852  0.04408895286119318 
C  -2.1795997004592267  -1.731181042778313  -0.20764125254400595 
C  -1.7945752688658276  0.5741688037251339  1.3771541166764858 
H  -1.892656336568461  1.5592319682038045  1.3822409767669104 
H  -2.5965444347069813  0.18999217759271347  1.8116030630137447 
C  2.4010280345335264  2.748245388432163  -0.39892946647298017 
C  2.8505272425719026  4.108678398590269  -0.41170823186830696 
C  4.225867235624427  4.3141184553172085  -0.2817729533550572 
H  4.540522184827736  5.210241677740053  -0.3043632870480075 
C  5.176799995831393  3.2966294720254194  -0.1204989801138583 
C  4.704748520535272  1.993836052166598  -0.09596594435980096 
H  5.309892164301759  1.2701938731342965  0.014508790916653701 
C  3.3489918327841313  1.7485410454621773  -0.23224607241936235 
C  2.931850260380816  -0.5783309644146619  1.3823638118017794 
H  3.0640268166309728  -1.559449693910088  1.3751487850429134 
H  3.716863809999733  -0.17422052725349274  1.8298935331523478 
C  -0.5827308326726616  0.2055266054732885  2.1873034992817653 
C  -0.6170223470890042  0.1556033393049569  3.576111542005495 
H  -1.4332731505657903  0.2964360744733183  4.041862491042102 
C  0.548935207324453  -0.10186696084440224  4.270026922903764 
H  0.5440165470659156  -0.13513446003268034  5.219884101788578 
C  1.720928979707256  -0.3095811506763722  3.5738150637413564 
H  2.530050962279689  -0.48088912724120947  4.040510708121413 
C  1.71001141356534  -0.26727588536915714  2.189168162442393 
C  -0.7144600724365173  -5.322656293976774  -0.4185031277761873 
C  0.3048131156091497  -5.304436898194309  0.7369103877015157 
H  0.9009062956380081  -6.078412837833775  0.6593367737449218 
H  -0.1704847987589258  -5.343039131156834  1.5933524290608039 
H  0.8331365073449624  -4.479897929752198  0.6938989559049717 
C  0.012912659634178451  -5.349648624808376  -1.775934799248564 
H  0.5956003111019014  -6.13673445462906  -1.818374489663472 
H  0.5533164564657815  -4.5378272533684285  -1.8729863692685815 
H  -0.6464406857855276  -5.3919585708143885  -2.499324227117682 
C  -1.4795893404314506  -6.648636232002551  -0.3029331610430771 
H  -0.844065469980903  -7.394485034115278  -0.3175726444549439 
H  -2.1011026088202907  -6.733907927615959  -1.0554245929835586 
H  -1.9815949877144867  -6.6639445278228235  0.5388569352250001 
C  -5.470951015150115  -3.6677997833931117  0.2229040839562409 
C  -5.583122572970412  -4.485045825851328  1.5221547940590099 
H  -6.519411763832891  -4.735727449352792  1.6699276424201177 
H  -5.2671421224751445  -3.944827979250898  2.275982972836642 
H  -5.036428928934237  -5.294553071297793  1.4476343999368289 
C  -6.3481150181250054  -2.418858542351847  0.3482008050281642 
H  -6.27701728287971  -1.8857621639433566  -0.4709850245433323 
H  -6.048127671848787  -1.884557677439403  1.1129060213226307 
H  -7.281074539726579  -2.6873117666477224  0.4831399669423823 
C  -5.990693357337484  -4.511981771408217  -0.9520650002534048 
H  -5.908794893678705  -4.000072377428025  -1.783202229599536 
H  -6.932182232287166  -4.738345839202637  -0.7989526978164505 
H  -5.463926078128643  -5.3350720593026875  -1.0209639228045833 
C  1.9080894562113524  5.326136357157637  -0.5894118839433331 
C  0.8952524401208369  5.394635625679262  0.5658209579759317 
H  0.2770131469218169  6.1402439988944195  0.4145560243785414 
H  1.3717615805166619  5.531541864566167  1.4106136727131464 
H  0.390154534017925  4.555535814828523  0.6074838033025114 
C  2.674153531982783  6.660256591995763  -0.5652786950133455 
H  3.335031833767459  6.670088938142952  -1.2890793272315313 
H  3.1312667706200434  6.758838180030514  0.29573838818715714 
H  2.0444751642634498  7.401048939267907  -0.6880342710551017 
C  1.1875104735539963  5.256205771353473  -1.9477590203269515 
H  1.8508908388234084  5.2050289641576  -2.6669723999162476 
H  0.6371789022370767  6.0584827996979564  -2.0673193038771194 
H  0.6154072714947376  4.460989409290485  -1.9734559793075044 
C  6.674113013272967  3.6520597931451073  0.011948649645094619 
C  6.88715163853131  4.453098588423121  1.3169787001066087 
H  7.827041604990831  4.720987357619392  1.386173196182718 
H  6.648800337915527  3.894153333230871  2.0856791809135595 
H  6.319524797939272  5.252118579105598  1.3055124745169489 
C  7.115677483173548  4.501540920492314  -1.1881831986125633 
H  6.963246780008838  4.00087117563139  -2.0163272424320007 
H  8.06911925876697  4.713399594391381  -1.1051277180770265 
H  6.597050275188335  5.332723665227484  -1.2081965439593274 
C  7.552892820716664  2.3965464051358842  0.07074382426700686 
H  7.3879707177734115  1.8447167705705527  -0.7219317741818585 
H  7.336296071731187  1.8833576384473967  0.8771037427114139 
H  8.497068459989675  2.659234966942873  0.09502183281743955 
N  1.5926015119905132e-16  1.5451803730972044e-16  -1.8699999999999999 
H  -0.5995627040070886  0.5879506502886873  -2.1641879446694197 
H  0.808924997382711  0.22482597693094525  -2.1596265158897356 
H  -0.20936229337562207  -0.8127766272196322  -2.175840995221339 
