74

Ni  0.0  0.0  0.0 
P  1.4282950946845667  -1.428311283474299  8.470537882144115e-16 
N  1.428295094684568  1.428311283474299  5.467272818570669e-16 
C  2.2392258855152862  0.9791608234712681  0.985444471678521 
C  3.208263570299882  1.780284603867832  1.5679743197983156 
H  3.754429700603775  1.454791656091672  2.245603937699477 
C  3.3381862380879994  3.0792796594042566  1.1094029664772134 
H  3.954233048542246  3.652948301863556  1.5050717623002554 
C  2.557844925991862  3.5183533524122184  0.07367726015122275 
H  2.6592385844558617  4.384679106690462  -0.25207157483904896 
C  1.619181951321186  2.671044254596933  -0.4895872449810194 
C  2.0598913296798638  -0.4439512729729203  1.4211710121113306 
H  1.430967487153085  -0.48713751375508235  2.1583678100618378 
H  2.907547227607675  -0.8063118143956924  1.723349447357825 
C  0.8567742037356656  3.0851115183949256  -1.703956887006246 
C  1.1977293083942417  2.519153649579597  -2.9414482879191155 
C  0.47621175886600764  2.9060298763471097  -4.079716226888206 
H  0.7033951051065646  2.545534019486322  -4.906217155125522 
C  -0.5604394876413576  3.8133599765810495  -4.001347532091046 
C  -0.8441391427357594  4.373119739211523  -2.7850687919006245 
H  -1.5235351255595786  5.005413270354975  -2.7364574866619233 
C  -0.16211487240446187  4.042152470052855  -1.6200948731261446 
C  -1.367231961301774  4.172663596833682  -5.238196040566653 
H  -1.0297795836684953  3.6851538515446536  -5.99306245992699 
H  -1.292311626118329  5.114246121987905  -5.405962877874258 
H  -2.289221783354364  3.945742621168204  -5.096610381566666 
C  -0.5275553108574624  4.6773177281422855  -0.30695259185593776 
H  0.04238001953436288  4.33256185405704  0.3846073812880479 
H  -1.4420664221499457  4.474624170827677  -0.09666961787626277 
H  -0.416093261889273  5.629255695538777  -0.3691471886377304 
C  2.3116421801795894  1.531931717417795  -3.0809645619865638 
H  2.387967744375004  1.2634496684156948  -3.999155613791091 
H  2.125331904145063  0.760798031264416  -2.5391560634158385 
H  3.134405261923714  1.9331971009733206  -2.794449600284785 
C  1.0494803019906012  -3.088794199516933  0.6671326317658287 
C  1.794129856019576  -4.171087550333144  0.2106639203917783 
H  2.4694590184218184  -4.03293445493785  -0.4140876339414669 
C  1.5427087556697838  -5.458286815837708  0.6775539408285098 
H  2.034436361639896  -6.1799491536809885  0.35769990901794174 
C  0.5623413144144359  -5.646571395754936  1.6095515572910675 
H  0.3927973303206129  -6.501821108568665  1.9338291948019337 
C  -0.17644152554775383  -4.587091391284867  2.074027321465598 
H  -0.8336497793257864  -4.740643475860239  2.715298978790785 
C  0.030151097878413635  -3.2911441237554175  1.6156531754572871 
C  -0.8237081581346355  -2.188552764139978  2.1776810258546244 
H  -0.5734146123829449  -1.3535690047881535  1.774898997241449 
H  -0.6940728019151439  -2.136042284899373  3.1273608108283795 
H  -1.7465896688309916  -2.3703644518333866  1.9900662944690262 
C  2.8815072461938565  -1.6653381444373376  -1.0971135401077743 
C  4.1463762030999955  -1.337672413994048  -0.6263963628683195 
H  4.242404378662288  -1.0395112078708997  0.2494646047865808 
C  5.267148290741725  -1.445667549077483  -1.432971510242425 
H  6.1106056518406815  -1.2448217297388584  -1.0957273155374714 
C  5.116666779540262  -1.8530744860195103  -2.732614939232886 
H  5.856011634493229  -1.900086188424233  -3.2933392434070776 
C  3.8710621709878175  -2.1951217173566633  -3.2067726563350667 
H  3.7895574700466796  -2.4848543686267566  -4.086871329503332 
C  2.735114395000877  -2.120814550405047  -2.418272056988462 
C  1.3979584345926854  -2.5285906155659013  -2.990445744103502 
H  0.7171111854227734  -2.418835492985983  -2.322728433885133 
H  1.432869879583579  -3.4483936866473877  -3.26337531640689 
H  1.1935865019680543  -1.9768777857945192  -3.7498965171104945 
Br  -1.5839191898578664  1.5839191898578664  0.0 
C  -1.308147545195113  -1.308147545195113  0.0 
C  -2.5481111008682706  -1.081588847540519  0.5874691967409313 
H  -2.7399447190521347  -0.23895174706744582  0.9782000501948406 
C  -3.514692573752534  -2.090568128666735  0.6049610958635798 
H  -4.3504064840370384  -1.9365173000894942  1.0287619599160838 
C  -3.2692344052199704  -3.300825455744854  0.016423527177974795 
H  -3.920165040096455  -3.990528127682657  0.045080339651694334 
C  -2.0939695739763726  -3.5035118821402764  -0.6007549227026172 
H  -1.9425337635726068  -4.327915038834382  -1.0474288760065322 
C  -1.0854604411866036  -2.53050399443706  -0.5998012209931928 
H  -0.24896772463074335  -2.712575304189299  -1.0129111498427692 
