80

Ni  0.0  0.0  0.0 
P  1.447346176628107  1.409002854858712  0.0 
N  1.447346176628107  -1.409002854858712  0.0 
N  2.870182285412296  0.42059202219247815  0.12103525687977468 
C  2.640821440651627  -0.9251119225948675  0.13491026586900412 
H  3.4718641375287733  -1.516530312647427  0.26371843282591495 
C  1.2677391324433385  -2.832940416859738  0.1286371999142723 
C  0.8944430220559734  -3.363007625328873  1.3671845298437566 
C  0.709596312989182  -4.741865438356383  1.453010374437167 
H  0.4562027419478597  -5.118380406491914  2.2875949578826176 
C  0.8824953254753352  -5.584231879210058  0.36607350377500664 
C  1.2215196503367702  -5.014377788970819  -0.8558080301675833 
H  1.3281590723792647  -5.576903966449344  -1.6132452442770058 
C  1.408200028100415  -3.64283963109123  -1.0019586649191572 
C  0.7025683230377562  -2.47772764473928  2.5651844070741148 
H  1.5612943360457296  -2.0783193695470836  2.816406966354619 
H  0.35827246496396037  -3.01023270845346  3.3122553670451134 
H  0.06202954426100593  -1.7688491165263938  2.3471633871656583 
C  0.7271857443624038  -7.077384485498399  0.4974983429373899 
H  1.5999607369803124  -7.483319500482704  0.6802952408063712 
H  0.3651855838486324  -7.441983789345455  -0.33705420269545566 
H  0.11314230737273534  -7.2791882426870345  1.234233465674516 
C  1.752515754407061  -3.0548581006470825  -2.3383944959542653 
H  1.1611115471363964  -2.294398076520698  -2.5236386465454825 
H  1.638723731133515  -3.735717150500603  -3.034661707355085 
H  2.6844290561024122  -2.7483120468115056  -2.3302874002282117 
C  4.204209543699756  0.9184758040321856  -0.19830665068484712 
C  4.975681743271445  1.5627693353543988  0.776700436871147 
C  6.214364003944292  2.078719457451843  0.38209559832748413 
H  6.748151818119366  2.528052996994945  1.0267669407027253 
C  6.688212738335484  1.9590938375187301  -0.907735827856394 
C  5.897868990816127  1.299518871580715  -1.840030944793593 
H  6.217158200665038  1.2025017580038182  -2.7292678143324434 
C  4.65697893135591  0.7804629076569691  -1.512198401186246 
C  4.532125862518633  1.717415395331226  2.2016898883350144 
H  3.9678842196922286  2.5158654560394513  2.2842603979349785 
H  5.317434259749498  1.811968897860048  2.7799186115910186 
H  4.0194393729606  0.9267388603914064  2.4721049591432505 
C  8.040107916330085  2.509892022436404  -1.3012058231627175 
H  8.139551575302765  3.4160351083764438  -0.9448199697773841 
H  8.110962683347369  2.533391438981817  -2.2790360535263208 
H  8.74509141479637  1.9349228006165982  -0.9372744685775698 
C  3.8544874642270868  0.07140001147129493  -2.5743993211812555 
H  3.977197002005698  -0.8960693661096982  -2.4836652989998953 
H  4.159000282822342  0.3569467714459891  -3.460262629586759 
H  2.904872460538021  0.2919576802711663  -2.4674793534379376 
C  1.8490934168463946  2.658392303524182  -1.2162200378798371 
C  1.3276736353312857  2.554238046849723  -2.510664290160069 
H  0.6977042545727375  1.87412642273517  -2.7144598201673698 
C  1.7332417045408837  3.4410085283228  -3.4902160878847295 
H  1.3913395887432947  3.359647206303693  -4.3731041716713905 
C  2.631153093096306  4.44795423826763  -3.1900470096534934 
H  2.896013388238139  5.062401612887616  -3.8653714782461965 
C  3.1493653841237927  4.568440523596715  -1.9037185965040127 
H  3.76447626370331  5.262733843604284  -1.6996502216494496 
C  2.764234440130017  3.672860918737409  -0.9259870345001591 
H  3.123962143117253  3.746408221812527  -0.04985169454751558 
C  1.2267859193650823  2.207283391424969  1.599639336805522 
C  1.2869610509279936  1.3972990992963044  2.736414230989158 
H  1.477125235915433  0.4711474236626505  2.6490978724471548 
C  1.0696364903801596  1.9390501201461126  3.987471514566102 
H  1.1249067272912325  1.3912431144055901  4.761153868877864 
C  0.7735723380205007  3.286727503092516  4.107611720918079 
H  0.6307719473836028  3.6632402107642106  4.968656045790894 
C  0.68591185038907  4.085167180571247  2.988799484510223 
H  0.47613401033677594  5.007068850621627  3.0842258361187507 
C  0.9010010899045908  3.555236767424657  1.7239622672103432 
H  0.8269056014331064  4.1052048404685575  0.9526526100553414 
Br  -1.5839191898578664  1.5839191898578664  0.0 
C  -1.2937473829822488  -1.2398794889499034  -0.4598005675376139 
C  -1.601562203225019  -1.4938654694550033  -1.7919791134336869 
H  -1.1309417375171225  -1.0428217585005106  -2.480879663633267 
C  -2.60218398542082  -2.411889969420291  -2.121542410022959 
H  -2.8231586547736818  -2.5626138747145775  -3.03270050271447 
C  -3.2683208079706407  -3.09759503004543  -1.143064365570095 
H  -3.9596020908062854  -3.707191723557817  -1.3683280760515548 
C  -2.9347449854640226  -2.896087320001541  0.14198826503765638 
H  -3.3668350933519986  -3.405606940434718  0.8171022443470677 
C  -1.9675509241539992  -1.9516175659140573  0.5112421903797603 
H  -1.7755298364628027  -1.8022912010877177  1.4301324877763764 
