57

Ni  0.0  0.0  0.0 
P  1.442208277260951  1.4142613920347253  0.0 
N  2.803944875763401  0.45371381387765686  -0.24509999264709126 
H  3.54029912978355  0.7311840058875116  -0.29581877745572 
N  1.442208277260951  -1.4142613920347253  0.0 
N  3.8198588980751995  -1.6081506310002949  -0.06566847306810855 
C  1.3428944342850007  2.5362338533751942  -1.411240169704298 
C  1.4243264682664452  2.023693438935173  -2.703840393055392 
H  1.5344176254164443  1.1122538335978103  -2.8276623738982583 
C  1.2820005348668524  2.864213516549518  -3.793744250195617 
H  1.3459832086592542  2.5147123049744353  -4.640132317551215 
C  1.046488159811167  4.209291088993984  -3.611029047482403 
H  0.9878793081819105  4.707993729094537  -4.335033970992905 
C  0.9659606802110645  4.721888702902544  -2.344397237821623 
H  0.8461966640300771  5.67538257793501  -2.209322515153859 
C  1.104685534706454  3.894588928907673  -1.242845814286028 
H  1.0091269879228855  4.272882282606793  -0.43200921380248813 
C  1.7815671483373636  2.4463328027518183  1.438992498174408 
C  3.0164739961612836  3.088640794835997  1.5318033299905576 
H  3.5784159137668  2.9580817722677937  0.8564851880279121 
C  3.3007591878729867  3.8811074324124837  2.626058852298611 
H  4.141653931728117  4.265653975974387  2.6813086992796156 
C  2.3658361402469237  4.043370063841487  3.6260280035524732 
H  2.5263494202654178  4.62165288666772  4.333547172029074 
C  1.1481443203642485  3.408686659447203  3.540590669925165 
H  0.4920688276839651  3.5204618842326063  4.212177996360477 
C  0.8517721556041044  2.593768115045827  2.4593837859542265 
H  0.04597213183411597  2.201196382460224  2.383959277556524 
C  2.6970312054413217  -0.9021860189256093  -0.09760026213094544 
C  1.361694788489929  -2.763510512987287  0.10938230082905587 
H  0.48473454335993726  -3.127981959286475  0.1394778701730582 
C  2.467814370031424  -3.55933709521528  0.1266264983980256 
H  2.4076971443036532  -4.445366429719824  0.18974010682147224 
C  3.723801940916011  -2.9429410139040297  0.059997730379834774 
C  4.999846094095314  -3.690700986675762  0.1364995098188395 
C  6.211873544115792  -3.0100579383527943  0.07230487478967047 
H  6.19122794619726  -2.109374449307423  -0.032190397101668586 
C  7.416196715020522  -3.689872529499035  0.13651983945294097 
H  8.184139929770481  -3.2356205407095207  0.09263727343573935 
C  7.424670600684956  -5.070251701973867  0.26914126856392806 
H  8.224368738069197  -5.464435830975609  0.31163340321652255 
C  6.22743691867252  -5.7583747253987365  0.3365984793545132 
H  6.248456916546522  -6.724065200081839  0.41570907785874195 
C  5.019357126295249  -5.086796585495247  0.27524509922389045 
H  4.198244950477919  -5.582019313729635  0.3429644034482854 
Br  -1.5839191898578664  1.5839191898578664  0.0 
C  -1.308147545195113  -1.308147545195113  0.0 
C  -2.5481111008682706  -1.081588847540519  0.5874691967409313 
H  -2.7399447190521347  -0.23895174706744582  0.9782000501948406 
C  -3.514692573752534  -2.090568128666735  0.6049610958635798 
H  -4.3504064840370384  -1.9365173000894942  1.0287619599160838 
C  -3.2692344052199704  -3.300825455744854  0.016423527177974795 
H  -3.920165040096455  -3.990528127682657  0.045080339651694334 
C  -2.0939695739763726  -3.5035118821402764  -0.6007549227026172 
H  -1.9425337635726068  -4.327915038834382  -1.0474288760065322 
C  -1.0854604411866036  -2.53050399443706  -0.5998012209931928 
H  -0.24896772463074335  -2.712575304189299  -1.0129111498427692 
