54

Ni  0.0  0.0  0.0 
P  1.46320914089545  1.392522534826635  0.0 
N  1.46320914089545  -1.392522534826635  0.0 
C  2.4583087780689565  -1.0064872308687556  0.7003623820532713 
C  2.6119925265816137  0.39486579660159915  1.0058577958368033 
C  3.415500022103848  0.8973306418740017  1.9627796703411886 
C  4.4082006759870715  0.21068785076180063  2.774842586126354 
C  5.279911320235941  -0.7517503909768517  2.277606461591671 
C  6.233434129945472  -1.3177095336761946  3.101404944327983 
C  6.311930589262317  -0.9627639743488303  4.416970440906773 
C  5.474210232769803  -0.02358411384997039  4.923387417272524 
C  4.536993676512995  0.5758302648221241  4.1144960900107606 
C  0.918157105875902  2.79649786815465  0.9917237783413092 
C  0.3455201707761273  2.548815046962144  2.2302779921913523 
C  -0.11623688179843272  3.598723068868602  3.005130507147664 
C  -0.04571780840847017  4.888670272648415  2.516406820644913 
C  0.5000634129876522  5.134377283804682  1.3016477074705846 
C  0.9957180082391494  4.099562611897489  0.5251286433055786 
C  2.4505674591420066  2.015500560893553  -1.3904203178992847 
C  3.8259003303446484  2.0734494399830004  -1.3444826340022047 
C  4.535796161508722  2.499341707553259  -2.45045940379429 
C  3.893972900805019  2.8753695109849566  -3.5807123325965224 
C  2.535093650981487  2.8383057804461718  -3.6402444607091633 
C  1.7970484380132556  2.39442985417475  -2.554044200309915 
H  1.4029534247544029  -2.2275207132545045  -0.19447398462126086 
H  3.0802687006969274  -1.6238392007649018  1.0108984667680174 
H  3.3242349250503325  1.8092442578056058  2.1257984702949364 
H  5.221810377750346  -1.014241827099648  1.3872851395710812 
H  6.828505303783674  -1.9436181909522574  2.755913843409692 
H  6.942247939178946  -1.3667493002093112  4.968965753281341 
H  5.534716216643016  0.21573170450516077  5.820757605656649 
H  3.980741442080687  1.232652755751415  4.4659875936043605 
H  0.2717551265275424  1.6737514917775922  2.5418954060737895 
H  -0.471556902399499  3.4377916552682475  3.8485561192064224 
H  -0.37680065137143504  5.593097608987446  3.025886848628208 
H  0.5423471522400247  6.007474587146609  0.9846981936803069 
H  1.3792514983843807  4.278009971839809  -0.3034749661885221 
H  4.27720606852068  1.8251515407730277  -0.5697929839246312 
H  5.464296238581374  2.530489935977008  -2.417689833425809 
H  4.382739547638138  3.159160659865142  -4.319491953837392 
H  2.0988988502161043  3.1121710935468165  -4.413727082405064 
H  0.8697559302376958  2.351008273203691  -2.6057525297095907 
Br  -1.5839191898578664  1.5839191898578664  0.0 
C  -1.29374738  -1.23987949  -0.45980057 
C  -1.6015622  -1.49386547  -1.79197911 
H  -1.13094174  -1.04282176  -2.48087966 
C  -2.60218399  -2.41188997  -2.12154241 
H  -2.82315865  -2.56261387  -3.0327005 
C  -3.26832081  -3.09759503  -1.14306437 
H  -3.95960209  -3.70719172  -1.36832808 
C  -2.93474499  -2.89608732  0.14198827 
H  -3.36683509  -3.40560694  0.81710224 
C  -1.96755092  -1.95161757  0.51124219 
H  -1.77552984  -1.8022912  1.43013249 
