61

Pd  0.0  0.0  0.0 
S  0.08283  -1.97301  0.0 
S  2.30873  -4.01436  0.05541 
N  1.30969  2.7564  -0.38156 
N  2.05328  -0.03125  0.0 
N  2.5917  -1.29144  0.05248 
O  0.26388  2.00426  0.0 
C  0.98598  4.17182  -0.47862 
C  2.12636  5.14434  -0.51091 
C  3.38386  4.70746  -0.48384 
C  3.66359  3.26936  -0.37844 
C  2.66601  2.36329  -0.31447 
C  3.04615  0.9803  -0.1548 
C  1.79927  -2.28242  0.07573 
C  4.094  -3.80363  0.25111 
H  -0.06574  4.49166  -0.31188 
H  1.9194  6.20781  -0.5551 
H  4.2079  5.41255  -0.51556 
H  4.7046  2.95667  -0.31938 
H  4.11426  0.66365  -0.10528 
H  4.5512  -4.8038  0.09948 
H  4.32611  -3.46025  1.27881 
H  4.49791  -3.13285  -0.5333 
N  -1.77346  0.0  -0.22654 
N  -0.22654  0.0  -1.77346 
C  -1.613  0.03692  -1.65042 
C  -2.49441  -0.04737  -2.83585 
C  -1.91073  -0.06736  -4.02485 
C  -0.39617  -0.03461  -4.15148 
C  0.40616  -0.00725  -3.04542 
C  -2.78922  -0.11762  -5.24737 
C  -3.15209  -0.15113  0.34011 
C  -3.16143  -0.13561  1.86111 
C  -3.76959  -1.50685  -0.09238 
C  -4.0425  1.04391  -0.08735 
H  -3.59231  1.99737  0.26303 
H  1.4862  0.01925  -3.13413 
H  -4.19945  -0.16152  2.25802 
H  -3.85114  -1.63059  -1.1851 
H  -3.1396  -2.34512  0.28014 
H  -3.57979  -0.09651  -2.75366 
H  -2.64828  0.76382  2.26295 
H  0.04753  -0.03714  -5.1377 
H  -4.19259  1.13792  -1.17156 
H  -2.73654  -1.07418  2.20543 
H  -3.82843  0.22597  -5.00663 
H  -5.05791  0.95346  0.35776 
H  -4.78911  -1.62854  0.33354 
H  -2.41037  0.56523  -6.03441 
H  -2.865  -1.1569  -5.62876 
N  0.0  0.0  1.91 
C  -0.4366  -0.76268  3.02617 
H  -1.00802  -1.67092  3.04934 
C  0.8627  0.95249  2.53545 
H  1.50766  1.63944  2.00925 
N  0.84578  0.91533  3.8001 
N  0.03019  -0.1032  4.1822 
C  -0.3081  -0.35611  5.55843 
H  -1.37911  -0.61988  5.63942 
H  -0.13971  0.57075  6.14891 
H  0.34482  -1.15954  5.95373 
