62

Pd  0.0  0.0  0.0 
O  0.35728  2.1333  0.0 
C  -0.59857  2.9848  -0.59515 
H  -1.56146  2.85821  -0.05864 
H  -0.77647  2.7054  -1.65693 
H  -0.31497  4.05625  -0.50352 
N  2.0325  -0.01883  0.0 
C  1.09637  -2.92015  0.03323 
C  1.61615  2.36861  -0.56593 
H  1.97593  3.40283  -0.36421 
H  1.54963  2.24203  -1.66324 
C  2.59738  1.37098  0.05578 
H  3.58056  1.46089  -0.448 
H  2.84231  1.70467  1.07215 
O  0.01022  -2.11447  0.0 
C  2.82102  -1.10456  0.59359 
C  4.34032  -0.92388  0.33276 
H  4.72349  -0.0998  0.96906 
H  4.55395  -0.66869  -0.7302 
H  4.92782  -1.83079  0.58179 
C  0.83576  -4.3929  -0.09309 
H  1.76635  -4.99935  -0.05039 
H  0.29505  -4.6157  -1.03331 
H  0.20571  -4.6923  0.77282 
C  2.36404  -2.49178  0.20969 
H  3.14826  -3.24592  0.191 
N  -1.95281  0.0  -0.04719 
N  -0.04719  0.0  -1.95281 
C  -3.08508  0.08917  0.70584 
H  -3.20387  0.18036  1.76872 
C  -4.2133  0.04052  -0.09958 
H  -5.23371  0.07636  0.21631 
C  -3.75618  -0.03918  -1.39185 
H  -4.36941  -0.06318  -2.29905 
C  -2.39518  -0.0562  -1.31953 
C  -1.41845  -0.06664  -2.40551 
C  -1.7306  -0.03865  -3.8665 
H  -2.75744  -0.03766  -4.21756 
C  -0.72758  -0.01316  -4.74636 
H  -0.93329  0.00184  -5.81011 
C  0.66884  -0.0376  -4.28703 
H  1.43069  -0.04997  -5.0627 
C  1.00649  -0.04725  -2.98049 
C  2.50001  -0.13958  -2.73243 
H  2.90571  0.76767  -2.30109 
H  3.10057  -0.20169  -3.6635 
H  2.72855  -1.04841  -2.15553 
C  0.0  0.0  1.95 
C  1.11169  0.84225  2.61938 
H  1.16411  0.85057  3.7142 
H  1.03464  1.9015  2.309 
H  2.07975  0.36692  2.43293 
C  -1.24963  0.44466  4.13106 
H  -2.3064  0.4803  4.45698 
H  -0.90123  1.50303  4.15821 
C  -0.49125  -0.366  5.17755 
H  -0.61968  -0.06178  6.21246 
C  0.33406  -1.3953  4.94126 
H  0.55942  -1.75221  3.94446 
H  0.82789  -1.88188  5.78019 
N  -1.22399  -0.10059  2.74878 
H  -1.57025  -1.07956  2.74131 
