63

Pd  0.0  0.0  0.0 
C  2.7706927117040063  -1.1357138486741563  1.191011841594267 
H  2.3213247064028555  -1.1239483918710285  2.0621726647709506 
C  3.32459010488357  0.2836435684720011  1.0361367621880881 
H  4.0260359651711966  0.4007348066240437  1.6951997387186986 
H  3.7408821570953954  0.3442524737243293  0.16185615627864297 
C  2.3614755579772675  1.451029907942269  1.1729389696106345 
H  2.903059070044928  2.26672230190529  1.1795053908084494 
C  3.8819584238797917  -2.149897960394884  1.3587925451202292 
H  4.320222506616566  -2.286107535025887  0.5171046661759366 
H  3.512381844676769  -2.9801592545998616  1.6662133405288388 
H  4.51837975055206  -1.8243224506722584  2.001125054359484 
C  2.0814750791442247  1.831572768794146  -1.3369250750953843 
H  2.6114315814780102  1.0447646646535524  -1.5813622917642731 
C  3.027312449600963  3.031134259652937  -1.2683609569567649 
H  3.347053833612211  3.2361670282515735  -2.150343910959476 
H  3.770311502160686  2.8197324198401583  -0.6994351533416363 
H  2.5574728042277286  3.788975379217665  -0.9124702642821192 
C  1.0234515244924718  2.0225700671738283  -2.401465525155289 
H  0.35694300439297644  2.6376791068284557  -2.0846521542727503 
H  0.6110367052504432  1.1783703832528936  -2.59987689211132 
H  1.429208947939967  2.3745271449176313  -3.196778770828513 
C  0.8531133811997773  -3.1264288047924547  0.6731036598574147 
C  1.0294143558891165  -4.352164451703374  0.024437250818480333 
H  1.4576055277743727  -4.377610415578981  -0.800288936010817 
C  0.5819820753653369  -5.514090002432332  0.5866201916024423 
H  0.7098809681664551  -6.319908464740846  0.14033433139287116 
C  -0.05557418703468575  -5.507182386619196  1.8137041402865908 
H  -0.3688567117491901  -6.299653149340039  2.1852723842757165 
C  -0.22077660806248045  -4.328041562091777  2.464971440263606 
H  -0.6244489335831378  -4.3185042794797805  3.3035175414704345 
C  0.207823163441484  -3.1321803689123193  1.8942025356146708 
H  0.059869744068590025  -2.329700731384074  2.3403977698433582 
C  1.582895953499062  1.432652728495241  2.4676399732273593 
H  1.0625652060403143  0.6271109547821432  2.5174009423917907 
H  0.9988206217999234  2.1934269304088403  2.5022051378193666 
H  2.1935512170461533  1.4642907015291424  3.2087535257714688 
C  2.085181140268685  -1.9178007876969863  -1.6505433127601918 
C  3.3452376668966934  -2.4340304916539646  -1.9067233519018427 
H  3.9479898381697716  -2.5481782318529866  -1.207697884960151 
C  3.712905103534382  -2.7794073603858047  -3.187300165131461 
H  4.568156488016234  -3.105210991127458  -3.3507232771366993 
C  2.8206630167254336  -2.6436870073246386  -4.2262278403292095 
H  3.059304709059726  -2.911261614780102  -5.084275713192313 
C  1.5950926368007134  -2.122412241893084  -3.9934177186087925 
H  1.000437828140589  -2.003427884104873  -4.698924686071983 
C  1.2243634673894066  -1.7657464366773372  -2.7121808254709445 
H  0.37603281699705726  -1.4150181591212196  -2.564548705228018 
N  1.439777577440349  1.5553586491545923  3.8117958732194166e-17 
P  1.439777577440349  -1.5553586491545923  -5.551115123125783e-17 
H  0.9684673606864068  2.271792701587245  0.008446780350174127 
Br  -1.654629867976521  1.654629867976521  0.0 
C  -1.3788582233137676  -1.3788582233137676  0.0 
C  -2.618821778986925  -1.1522995256591737  0.5874691967409313 
H  -2.8106553971707884  -0.30966242518610043  0.9782000501948407 
C  -3.5854032518711887  -2.161278806785389  0.6049610958635797 
H  -4.421117162155692  -2.007227978208148  1.0287619599160838 
C  -3.3399450833386255  -3.3715361338635086  0.016423527177974573 
H  -3.9908757182151104  -4.061238805801311  0.045080339651694 
C  -2.164680252095028  -3.57422256025893  -0.6007549227026177 
H  -2.0132444416912625  -4.3986257169530365  -1.0474288760065327 
C  -1.1561711193052586  -2.601214672555715  -0.5998012209931929 
H  -0.3196784027493984  -2.7832859823079534  -1.0129111498427692 
