38

Ni  0.0  0.0  0.0 
P  1.4422729448686196  1.4141954435296418  -4.070844793742809e-17 
N  1.4422729448686196  -1.4141954435296418  -1.1102230246251565e-16 
H  1.1683332983520993  -2.0819702651221883  0.5701356660598033 
H  1.5969181489110675  -1.8014633013817951  -0.8205541768471428 
C  1.591644962078972  2.8162801900701506  -1.1193973977069 
C  2.7237649102467  -0.8787831365077876  0.5030651490224795 
H  3.4594433536955727  -1.5073070997738087  0.29469184112290836 
H  2.680406176081079  -0.7611745020287488  1.4842364945414674 
C  2.9764787789915905  0.4551561882376469  -0.16948824546876773 
H  3.1989562859966485  0.3247654980090262  -1.1248211648107773 
H  3.72867625243434  0.92607309936687  0.2697404350142585 
C  1.4680718392432774  2.0663909687096584  1.6784684548671978 
H  2.2847677936639776  2.590175742157398  1.8134073637748225 
H  1.4471222821297396  1.32380757629047  2.3176647638051806 
H  0.6856118991308242  2.639151207547906  1.818557001598108 
C  1.6687722380952683  2.5790251476111146  -2.4922387607645753 
H  1.5960036826605895  1.6922989028495175  -2.8259231688374626 
C  1.6701165613855038  4.126640128987008  -0.640398129874381 
H  1.6003868132389514  4.298587935856677  0.29171953111920124 
C  1.8528850731228261  3.643906672219445  -3.3696583026748144 
H  1.9111580819423626  3.483185969830026  -4.304357678017832 
C  1.8502411037406703  5.182715399087181  -1.5330811380717035 
H  1.9028419242517933  6.073450060808353  -1.2091811595443351 
C  1.9512928587963028  4.932968122912623  -2.884234638175802 
H  2.08957732977896  5.654371278090173  -3.487729188925786 
Br  -1.5839191898578664  1.5839191898578664  0.0 
C  -1.308147545195113  -1.308147545195113  0.0 
C  -2.5481111008682706  -1.081588847540519  0.5874691967409313 
H  -2.7399447190521347  -0.23895174706744582  0.9782000501948406 
C  -3.514692573752534  -2.090568128666735  0.6049610958635798 
H  -4.3504064840370384  -1.9365173000894942  1.0287619599160838 
C  -3.2692344052199704  -3.300825455744854  0.016423527177974795 
H  -3.920165040096455  -3.990528127682657  0.045080339651694334 
C  -2.0939695739763726  -3.5035118821402764  -0.6007549227026172 
H  -1.9425337635726068  -4.327915038834382  -1.0474288760065322 
C  -1.0854604411866036  -2.53050399443706  -0.5998012209931928 
H  -0.24896772463074335  -2.712575304189299  -1.0129111498427692 
