96

Fe  0.0  0.0  0.0 
O  -3.8073142103539173  -2.9817003941217335  -0.07141608419267495 
O  -4.064723798821255  -2.748019933004593  2.150007917626238 
N  -2.0089009014760473  0.24085814929842375  0.01258168173415927 
N  0.26855993204100764  1.9874813502146014  -0.012585674446427463 
N  2.012437446005992  -0.23757875733162373  0.01254367281290761 
N  -0.27209647657095276  -1.9907607421814013  -0.012539680100639416 
C  -2.695923249911346  -2.0965549161658616  -0.03263882409337334 
C  -3.0037140527878092  -0.7373951829689585  -0.01914136800768853 
C  -4.311160190136191  -0.11032251883278679  -0.04926713481877841 
C  -4.096839070354786  1.238861268923872  -0.012703020304152364 
C  -2.6708180770104217  1.451047308491338  0.023668687846861203 
C  -2.0797313361549477  2.691554180590616  0.00386149068728903 
C  -0.7203036166879986  2.9607441675711783  -0.057327940216201495 
C  -0.12594974113244417  4.278906261202249  -0.16000824760882645 
C  1.222351503856961  4.100751726858838  -0.18172033301994345 
C  1.4612563651680688  2.6792708192712276  -0.0720500243405825 
C  2.7115832531681034  2.0954009590695946  -0.03333827557778738 
C  2.9873425642453078  0.7394694653421074  -0.01277017716861404 
C  4.304276777494069  0.13537093415018253  -0.06261606553089662 
C  4.135038609143918  -1.2077856011992845  -0.062309599379263024 
C  2.70043736475042  -1.4414302998110078  -0.02733283001354019 
C  2.0875133136180573  -2.673432634113493  -0.022995109791920328 
C  0.7333276687386596  -2.9408764513945695  -0.032748765552312625 
C  0.17095791716035008  -4.258523933923989  -0.09488984933456582 
C  -1.1858801113657185  -4.134158535166937  -0.16492885230783944 
C  -1.4550096923228957  -2.712910953243089  -0.0694511610421582 
C  -4.38650995834645  -3.292760912459635  1.1369862037225391 
C  -5.443952403243814  -4.323544361670611  0.9715230762221494 
C  -5.67633371459619  -0.729945388014156  -0.19307731561593736 
C  -5.936359044025844  -1.2681589560547755  -1.5878538759409178 
C  -5.110267803515022  2.3501211341017547  -0.06136147126668174 
C  -5.449109921027573  2.7646517420717687  -1.4947795765156773 
C  -0.9154944163119988  5.55167480211722  -0.2842664753154379 
C  -1.44418971195761  5.786196539312334  -1.6921200114281911 
C  2.292352231466581  5.145852451077819  -0.35299175256167686 
C  2.8346849747955645  5.1818232651080365  -1.7596917547125488 
C  5.598432462239961  0.8951093504085155  -0.04301651193473299 
C  6.19433687043016  0.9414695466495612  1.354792390778359 
C  5.177614932605372  -2.2802115829781027  -0.1086401871516321 
C  5.422419844190212  -2.975075184637389  1.2281700687758952 
C  0.9934764989535759  -5.512730771850996  -0.026898082906582677 
C  1.435950646835174  -5.844285519821608  1.394785077138086 
C  -2.12630138819241  -5.283455112181286  -0.4110338099067393 
C  -2.583971103333938  -5.343782178601656  -1.8559823580908554 
H  -2.658067215440949  3.444705191895605  0.042032224250568316 
H  3.4559791887490574  2.68537469640396  -0.011196677932726825 
H  2.6649709900357155  -3.4286256797738384  -0.018183069417102484 
H  -5.822081015164178  -4.512146346633901  1.8211361023199624 
H  -6.121211042263086  -4.004100204942426  0.38638577045026395 
H  -5.062381815769833  -5.116166126096863  0.6116280980235457 
H  -6.33362206729918  -0.07325749955264482  0.008452877032587023 
H  -5.7685996493084275  -1.4379431902616941  0.4338013961811162 
H  -6.806485390998405  -1.6455493948852833  -1.640791168877968 
H  -5.86011061412753  -0.558630562777473  -2.2144057381768953 
H  -5.290051515303245  -1.9353106806071765  -1.7847322260539842 
H  -4.775599166199589  3.1029592660115615  0.41084114450326753 
H  -5.905683189751179  2.061376737414076  0.37067155608221564 
H  -6.094193396395704  3.4636525574174084  -1.4927971655830605 
H  -4.656273103866874  3.0664505689394166  -1.9226003794879083 
H  -5.797521327206806  2.0156518106019212  -1.965145205258226 
H  -0.35572527169825036  6.283014043620837  -0.04793852822643018 
H  -1.6407090891039526  5.526702553428425  0.3277361432759228 
H  -1.9337948976342985  6.599455701221616  -1.7291113310735757 
H  -0.7176384751255204  5.825784404663461  -2.303180639496064 
H  -2.014850295368946  5.062916307597798  -1.9241913257942744 
H  3.006293997227003  4.967578568571982  0.24964046356951014 
H  1.9298801149459055  5.9967820079304115  -0.13822633630554088 
H  3.504177353687979  5.850858350770475  -1.8417836468678102 
H  3.208017820517166  4.333234159495956  -1.9687067927885167 
H  2.1235654854981165  5.371481093301456  -2.3591981851587054 
H  5.448838934976433  1.7797221435392017  -0.35283932069868007 
H  6.219053601408276  0.4767177983765038  -0.628244647626846 
H  7.011590694443039  1.4259149061123149  1.345397667188575 
H  5.577692851950424  1.370748461911707  1.9363780228090326 
H  6.354272639985001  0.055997623873516957  1.659481008209657 
H  5.99006650319894  -1.8973988117903648  -0.4154567246061992 
H  4.909433525759202  -2.936686908798299  -0.7408935379622668 
H  6.092400665642306  -3.641250490303077  1.1306113633334647 
H  5.710109030143515  -2.327743972396313  1.8612551293673014 
H  4.617700668836175  -3.3782074176492016  1.5328280106130125 
H  1.7615034734349113  -5.414877815907087  -0.576010325969953 
H  0.4839949976427173  -6.240193747222218  -0.3618965295986247 
H  1.9529490356077366  -6.642167009206105  1.4070978714655205 
H  1.9584162405412917  -5.124057997963155  1.7273276009616472 
H  0.6677390030903848  -5.957551869425735  1.9422869807533003 
H  -2.8846109932950825  -5.196635303661693  0.15423122851121226 
H  -1.6900699857800021  -6.09809502026607  -0.19359700597300836 
H  -3.175039324128896  -6.077877281906801  -1.9786341728743817 
H  -3.035675056958421  -4.5358918347676545  -2.0711271015074364 
H  -1.8290603688103304  -5.446156037085637  -2.423800670581857 
O  0.0  0.0  1.79 
H  0.0  0.0  2.60986096992112 
O  -0.00044756170692961117  -0.0005947690733149047  -4.221696576078271 
N  0.0  0.0  -1.8699999999999999 
C  0.0004475617069298887  0.0005947690733152933  -3.0299316815822674 
