70

Fe  0.0  0.0  0.0 
O  -2.08837  1.70765  4.0347 
H  -2.07876  0.88555  4.59242 
O  -0.01093  -1.17238  0.93241 
O  -2.22921  -5.2616  -1.80874 
H  -3.15558  -5.15719  -1.47475 
N  -1.72417  -3.89031  2.57621 
O  -1.92105  -0.33803  -0.82234 
N  2.25146  -0.03395  -0.62418 
C  -1.63175  1.93316  0.99185 
H  -1.54763  2.61475  1.86111 
C  -2.64491  0.81861  1.16783 
C  -1.36695  -4.5475  0.31611 
C  -1.12916  -2.69302  2.34829 
N  -4.74594  -0.98647  1.35075 
N  -0.31948  1.54436  0.51411 
C  -0.78476  -3.27113  0.04155 
C  2.83169  -0.97888  0.36384 
H  2.44074  -2.00333  0.20638 
H  2.51981  -0.72501  1.39559 
H  3.94379  -1.00102  0.32822 
C  -1.46261  -5.67093  -0.70083 
H  -0.44787  -5.94625  -1.04953 
H  -1.90032  -6.59729  -0.28383 
C  2.63957  -1.78539  -2.49968 
H  3.23251  -1.88042  -3.43358 
H  3.05371  -2.53505  -1.79495 
N  0.31263  -1.91544  -1.69754 
C  -3.50728  0.83275  2.29913 
C  0.7168  2.57146  0.60535 
H  0.48359  3.27077  1.4387 
H  0.74062  3.1749  -0.32722 
C  2.81214  -0.34906  -1.98264 
H  3.91847  -0.20505  -1.94838 
H  2.43372  0.36243  -2.74443 
C  -0.99941  -1.73099  3.48464 
H  -1.44654  -2.14003  4.41401 
H  -1.53854  -0.81122  3.22348 
H  0.06953  -1.47858  3.67324 
C  -4.54941  -0.1008  2.36038 
H  -5.23162  -0.10259  3.20097 
C  -3.35438  1.8266  3.44166 
H  -3.46397  2.85721  3.05984 
H  -4.12593  1.70003  4.22736 
C  -0.65444  -2.35169  1.0587 
C  -0.22435  -3.039  -1.28589 
H  -0.09156  -3.9241  -1.88927 
C  1.20618  -2.11613  -2.84972 
H  0.88873  -1.53022  -3.65199 
H  1.2015  -3.14109  -3.28682 
C  -1.8446  -4.81365  1.60565 
H  -2.30081  -5.76555  1.84044 
C  -3.92109  -1.04739  0.27119 
C  2.76311  1.32391  -0.29334 
H  2.63765  2.02437  -1.1507 
H  3.86013  1.27695  -0.09452 
C  -2.82821  -0.17189  0.17079 
C  -4.1779  -2.0638  -0.79053 
H  -5.08806  -2.6518  -0.55555 
H  -3.31338  -2.74741  -0.8694 
H  -4.32339  -1.54956  -1.7651 
C  2.09395  1.99335  0.9172 
H  2.73062  2.87158  1.16055 
H  2.06884  1.36121  1.82891 
N  0.0  0.0  -1.87 
C  -0.29888  1.04326  -2.88263 
C  -0.27839  0.5519  -4.40404 
H  -0.02832  1.42136  -5.03095 
H  -1.23272  0.09509  -4.76456 
H  0.52262  -0.07957  -4.83568 
