45

Co  0.0  0.0  0.0 
C  3.430617242163799  -2.8905630719895123  -0.6758676400847898 
N  1.2605265695335437  1.3128110174354872  1.5085419677698568e-15 
O  4.428535071059109  -4.974687061400236  -0.9913346170184095 
O  4.1829614519587635  4.984635804842009  -1.664053989079512 
N  1.2605265695335424  -1.3128110174354872  -2.220446049250313e-16 
C  4.350457834355535  3.757377038270017  -1.7431364887630012 
C  2.3868059603181764  0.7401118360493539  -0.4956758532887007 
C  3.504430152665501  -1.4981819480324798  -0.7897439760436636 
H  4.277723321941832  -1.090277232206681  -1.1075888865859644 
O  5.278797337388103  3.200523058305665  -2.342937749271109 
C  2.405754963743322  -0.7384297965397284  -0.4201328458690517 
C  3.299189146462915  2.8816129795207943  -1.094313593621605 
C  2.166961331809744  3.459563000447766  -0.557473618362484 
H  2.071084176297132  4.384849122263615  -0.5539960005286239 
C  3.4165297792692684  1.5003899352915  -1.0412398903160218 
H  4.18064874798865  1.083900747024256  -1.3696661494667517 
O  5.660439844238425  -3.213010575383352  -1.3729171224261163 
C  1.1845114096443559  2.662941170564782  -0.02961528453499281 
H  0.43051384941580073  3.069459670114338  0.3271210868842704 
C  2.2497126232411757  -3.4790517232419873  -0.2501003111899268 
H  2.1656085144228965  -4.403698232814452  -0.1910857264219162 
C  4.628518169225715  -3.6989356982895885  -1.0878376219923513 
C  1.2008502690130056  -2.642351379162207  0.08403199209686638 
H  0.41079312841820903  -3.028988704153229  0.3841597540899504 
H  5.188246081900784  -5.261549218251769  -1.484467198554479 
O  -3.343600788830166  1.5633098679691744  -1.1861413651053905 
C  -1.3152186130069785  1.3152186130069785  0.0 
H  -1.4325302680325511  0.3544765148510123  -0.2096146379097457 
H  -1.2176292412134015  1.3965139155254769  0.9822942320411735 
C  -2.5310887915802134  2.038985800864256  -0.4140122300578334 
C  -2.741721333513275  3.4033236224200447  0.1854317881383789 
H  -3.0844220750995692  3.740357384902368  -0.5818791427515766 
H  -3.3359816031228133  3.272787142165992  0.8578538053912945 
H  -2.042380187616  3.959600040309663  0.3660675502536987 
C  -1.3152186130069785  -1.3152186130069787  1.3081903724320894e-20 
F  -1.2775463721779405  -1.6105492452954255  -2.339648056845949 
N  -3.349183131825929  -3.3263836353228324  -0.005903321003046443 
C  -1.7831602735199206  -1.9340057043080336  -1.1371652245806538 
F  -3.212226775482348  -3.4440147239519945  -2.2527197205882477 
C  -2.770672122883667  -2.898434798818787  -1.109037853083083 
F  -3.4838389586298266  -3.2000974188957083  2.2385117608943013 
C  -2.8997105108286148  -2.768843728389312  1.0953729500345006 
F  -1.607560089981488  -1.3261581701838219  2.3595322517247204 
C  -1.9266416529443338  -1.8020524631081563  1.1510572134474573 
