69

Cr  0.0  0.0  0.0 
Cl  -1.06819  5.76628  -0.2921 
N  -0.22944  -2.04416  0.0 
N  2.14664  0.02765  0.0 
C  0.48279  2.0165  0.0 
C  -0.42872  3.08758  -0.06707 
H  -1.49185  2.90069  -0.03596 
C  0.04423  4.41679  -0.20082 
C  1.41882  4.6829  -0.29019 
H  1.79266  5.69051  -0.42984 
C  2.32503  3.64397  -0.20034 
H  3.39183  3.83926  -0.27785 
C  1.85866  2.34537  -0.03731 
C  2.78098  1.27365  0.0471 
H  3.85944  1.38702  0.00596 
C  2.97975  -1.17803  0.03031 
H  3.28686  -1.43598  1.05976 
H  3.92482  -1.00232  -0.52823 
C  2.26591  -2.36975  -0.6073 
H  2.02913  -2.22532  -1.67762 
H  3.00633  -3.19929  -0.58024 
C  1.03854  -2.83071  0.18835 
H  1.33182  -2.91001  1.2555 
H  0.86958  -3.89064  -0.1266 
C  -0.84357  -2.54774  -1.27574 
H  -0.22407  -2.31067  -2.15839 
H  -1.88564  -2.21635  -1.43151 
H  -0.93259  -3.65552  -1.30777 
C  -1.17916  -2.52928  1.0375 
H  -0.78603  -2.36652  2.05948 
H  -1.333  -3.63408  0.96039 
H  -2.17234  -2.06368  0.96265 
Br  -10.10659  -1.14697  -0.75534 
N  0.45619  0.0  -1.86307 
N  -1.81619  0.0  -0.61693 
N  -3.10552  -0.06131  -0.12237 
H  -3.3375  -0.11314  0.87617 
C  1.76555  0.11508  -2.57368 
H  2.77314  0.13979  -2.14821 
C  1.78729  0.07713  -4.05896 
H  2.75446  0.09313  -4.5598 
C  0.658  0.04047  -4.76439 
H  0.71805  0.02644  -5.83824 
C  -0.62965  0.09261  -4.05749 
H  -1.52484  0.16953  -4.66483 
C  -0.69796  0.10454  -2.70818 
C  -1.96166  0.33337  -2.00105 
C  -3.33891  -0.05361  -2.36851 
H  -3.71799  -0.11378  -3.37905 
C  -4.00796  -0.18354  -1.22361 
C  -5.4756  -0.4107  -1.09563 
C  -6.06814  -0.59102  0.15429 
H  -5.47857  -0.56818  1.0661 
C  -7.4322  -0.80566  0.26101 
H  -7.87978  -0.95638  1.2361 
C  -8.23141  -0.84033  -0.88812 
C  -7.64801  -0.64761  -2.14436 
H  -8.25405  -0.65811  -3.0381 
C  -6.27949  -0.43374  -2.25356 
H  -5.87032  -0.28586  -3.24094 
N  0.0  0.0  1.93 
N  -0.69798  0.296  4.10939 
C  -1.06833  0.4001  2.7559 
C  0.59782  -0.24737  4.11668 
C  1.0285  -0.38991  2.81697 
H  -1.97023  0.87982  2.40722 
H  -1.24398  0.59196  4.93019 
H  1.16021  -0.51805  5.00059 
H  1.96824  -0.81806  2.54864 
