79

Pd  0.0  0.0  0.0 
O  0.16812  -2.02877  0.0 
N  2.02779  0.02382  0.0 
N  0.20409  2.00495  0.0 
H  -0.48066  2.54147  -0.58075 
H  0.09266  2.37896  0.97052 
C  1.21472  -2.84707  -0.20539 
C  2.53782  -2.35329  -0.2548 
C  3.59187  -3.24916  -0.50136 
H  4.61363  -2.89167  -0.56566 
C  3.34451  -4.60895  -0.67684 
H  4.16794  -5.28362  -0.87095 
C  2.04024  -5.09632  -0.59451 
H  1.85373  -6.15455  -0.71629 
C  0.97877  -4.2183  -0.36203 
H  -0.03029  -4.60493  -0.30236 
C  2.89644  -0.93319  -0.05266 
H  3.95733  -0.6909  -0.00275 
C  2.49766  1.38966  0.21112 
H  3.50809  1.55979  -0.22747 
H  2.54894  1.57705  1.30406 
C  1.53829  2.37156  -0.42378 
H  1.78687  3.4192  -0.14469 
H  1.59674  2.32401  -1.52805 
S  -7.17609  -0.00072  2.20693 
C  1.67671  0.08615  -2.6485 
H  2.65853  0.16865  -2.22416 
C  1.68496  0.11891  -4.03496 
H  2.62855  0.2054  -4.56369 
C  0.49429  0.05098  -4.71969 
H  0.49775  0.08209  -5.80131 
C  -0.6907  -0.04938  -4.00091 
H  -1.62494  -0.09577  -4.54367 
C  -0.66032  -0.0698  -2.59007 
C  -1.88996  -0.14581  -1.86228 
H  -2.8238  -0.26025  -2.41025 
C  -3.09066  -0.07142  0.14004 
C  -4.07741  -1.02034  -0.1987 
H  -3.90754  -1.74324  -0.98761 
C  -5.30602  -1.02182  0.45668 
H  -6.06541  -1.73296  0.16106 
C  -5.55941  -0.08551  1.46198 
C  -4.57539  0.83467  1.82954 
H  -4.76528  1.56677  2.60348 
C  -3.35086  0.84707  1.16771 
H  -2.63547  1.60879  1.43966 
N  0.50892  0.0  -1.89199 
N  -1.86892  0.0  -0.58801 
O  -8.10277  1.03873  1.20311 
O  -7.86029  -1.57326  2.25726 
O  -7.04107  0.64555  3.79098 
N  0.0  0.0  1.91 
H  -0.85357  0.55611  1.72361 
H  -0.29702  -0.98289  1.78264 
C  0.0425  0.02835  3.3874 
C  1.22295  -0.83308  3.89436 
H  2.178  -0.4287  3.50522 
H  1.12327  -1.88155  3.53381 
C  -1.2974  -0.57297  3.95285 
H  -2.17576  0.01513  3.60012 
H  -1.4482  -1.62281  3.60536 
C  0.19285  1.47606  3.89459 
H  -0.65704  2.10086  3.53282 
H  1.13117  1.91788  3.50536 
C  1.2324  -0.82521  5.44078 
H  2.0847  -1.43983  5.80646 
C  -0.09201  -1.4153  5.98267 
H  -0.20782  -2.46682  5.63694 
H  -0.0756  -1.42784  7.09403 
C  -1.27891  -0.56297  5.48829 
H  -2.23194  -0.98982  5.87631 
C  -1.12319  0.89033  5.97956 
H  -1.12608  0.91033  7.09083 
H  -1.98351  1.50173  5.62746 
C  0.20346  1.47785  5.43971 
H  0.31273  2.5221  5.805 
C  1.38782  0.62541  5.94605 
H  2.34557  1.05311  5.57641 
H  1.4153  0.63815  7.05664 
