47

Fe  0.0  0.0  0.0 
N  1.5066922413021184  1.1076003295413015  2.7344583324268854e-15 
C  2.2300003193812583  -0.0035009650110935375  0.03475884677985418 
N  1.506692241302118  -1.1076003295413015  2.220446049250313e-16 
C  2.0304570101086674  -2.406680712260117  -0.0494464982801044 
C  2.354259607937187  2.2802893269686595  0.1983771265245389 
H  2.2107534883115125  2.667174116157429  1.0983375276113625 
H  2.15797777885309  2.9721977523818017  -0.48175534175919243 
C  2.9184912319859038  -5.066985482321242  -0.15139350002575683 
H  3.219603032868278  -5.96654019842775  -0.18755889923436794 
C  3.51801495485511  -4.100743254456239  -0.9036538291722253 
H  4.246837125120954  -4.3366748744009715  -1.466811511210967 
C  3.7770436521743567  1.7772320461616444  0.054567162713886425 
H  4.35897342589751  2.1781108994424874  0.7476536388817396 
H  4.1392431289913985  2.009068470502853  -0.8369715135880145 
C  3.090869223962466  -2.786500624533186  -0.865938391044877 
H  3.525758532416053  -2.13614302641084  -1.403800328680651 
C  1.4242081682863206  -3.3980687614626195  0.709391098105013 
H  0.6946713879747892  -3.172047431093681  1.2730340563604725 
C  3.7009863921555524  0.2675895104895307  0.2248908477606348 
H  4.245172761029295  -0.20031691403693008  -0.4586108448626438 
H  4.004941159780426  -0.008336698494685546  1.1260281438669133 
C  1.8641821088033108  -4.70925293256289  0.6610783552513231 
H  1.4345421853611438  -5.368460067597221  1.1928608477277578 
N  -1.5066922413021184  1.1076003295413015  -2.5124137275018553e-15 
C  -2.2300003193812583  -0.0035009650110935375  -0.03475884677985354 
N  -1.506692241302118  -1.1076003295413015  0.0 
C  -2.030457010108668  -2.406680712260117  0.04944649828010436 
C  -2.354259607937187  2.2802893269686595  -0.19837712652453823 
H  -2.2107534883115116  2.667174116157429  -1.0983375276113614 
H  -2.15797777885309  2.9721977523818017  0.48175534175919255 
C  -2.9184912319859055  -5.066985482321242  0.15139350002575697 
H  -3.2196030328682745  -5.96654019842775  0.18755889923436508 
C  -3.51801495485511  -4.100743254456239  0.9036538291722241 
H  -4.246837125120952  -4.336674874400971  1.466811511210972 
C  -3.777043652174358  1.7772320461616444  -0.05456716271388856 
H  -4.35897342589751  2.1781108994424874  -0.7476536388817407 
H  -4.139243128991395  2.009068470502853  0.8369715135880106 
C  -3.0908692239624624  -2.786500624533186  0.8659383910448752 
H  -3.5257585324160567  -2.13614302641084  1.4038003286806513 
C  -1.4242081682863206  -3.398068761462619  -0.7093910981050128 
H  -0.6946713879747879  -3.1720474310936804  -1.2730340563604736 
C  -3.7009863921555533  0.2675895104895307  -0.2248908477606333 
H  -4.245172761029302  -0.20031691403693008  0.45861084486264386 
H  -4.004941159780431  -0.008336698494685546  -1.1260281438669109 
C  -1.86418210880331  -4.70925293256289  -0.6610783552513227 
H  -1.4345421853611438  -5.36846006759722  -1.1928608477277576 
