39

Co  0.0  0.0  0.0 
C  1.383687057285714  1.2429843633368842  5.63813533351408e-17 
H  1.6712127494890925  2.1239027741369014  -0.3490988539605144 
H  0.5019355088270441  1.3555579194710543  0.43561395897062405 
C  1.3836870572857145  -1.2429843633368842  -2.220446049250313e-16 
C  0.8946506409673665  -2.5531559616570005  0.10275147916123145 
H  0.4166188328580366  -2.9255233611610887  -0.6284156427899019 
C  1.0878442462578148  -3.3244525228030097  1.2428623665924687 
H  0.7554714200139246  -4.213823175891736  1.2731746710113712 
C  1.7600613129290272  -2.808208341518739  2.3333456404514212 
H  1.908398118467744  -3.344314345468038  3.103597420489666 
C  2.2176444364068786  -1.5012930552805646  2.292739610046426 
H  2.6675510069591466  -1.1320358558031465  3.0440610781331507 
C  2.0184975679263366  -0.7283355882849792  1.152873771892576 
C  2.403120576303116  0.7332188073978128  1.0197893254402939 
C  3.8259269988449014  0.8537624879295296  0.46267443149313026 
H  3.8870760989853745  0.36882911484844416  -0.38594931977961666 
H  4.461311941477367  0.471177119982215  1.1048394187888915 
H  4.039943127619921  1.799258223567738  0.3150916394267407 
C  2.324138093878567  1.4928020715551817  2.351971209524499 
H  2.5287199918248566  2.4401687398202165  2.201320046591367 
H  2.972646350284746  1.1155969965522188  2.9823442044767328 
H  1.420889646657735  1.4089974010600896  2.7225331473923484 
N  -1.2869343417595165  1.2869343417595165  0.0 
N  -1.3209014835737072  1.9842379703028854  -1.155620155110331 
C  -2.2128337349665896  2.954595662696714  -1.278363047928394 
H  -2.222617790943449  3.453306265426103  -2.0870605049380795 
C  -3.1341729818607966  3.285847115358927  -0.29411368560114837 
H  -3.7675453805858723  3.9807627014108027  -0.4279641723220471 
C  -3.0981988107496665  2.5754541502452204  0.8760399171920172 
H  -3.707895019406126  2.752444494594662  1.5826344269053352 
C  -2.125723060303555  1.57753886925727  0.986281047288783 
H  -2.062555522592338  1.088256555689514  1.798166174513864 
C  -1.3152186130069785  -1.3152186130069785  0.0 
C  -2.321054141835176  -2.3961561845371273  -0.237677902635906 
O  -1.1673903346393089  -0.8248686287691624  1.0897369146141753 
H  -2.299146299557254  -2.668545979799865  -1.1940201195663578 
H  -2.1052751010742874  -3.1813677976742945  0.34462510968915294 
H  -3.234388125535885  -2.056315411861463  -0.0026640021010650994 
