77

Pd  0.0  0.0  0.0 
N  1.99782  0.01627  0.0 
N  2.48617  1.27979  -0.11898 
O  0.0771  -1.89948  0.0 
O  0.32508  1.88321  0.0 
O  4.45606  3.31015  0.03493 
H  4.47848  2.34883  0.01287 
Br  -1.04807  -4.72703  0.09764 
C  1.10033  -2.7872  0.00388 
C  0.77664  -4.15631  -0.00205 
C  1.78489  -5.12572  -0.06176 
H  1.5336  -6.17663  -0.06551 
C  3.12228  -4.7423  -0.12794 
H  3.90782  -5.482  -0.19379 
C  3.45515  -3.39622  -0.08188 
H  4.50163  -3.11152  -0.1111 
C  2.45678  -2.41872  0.01184 
C  2.93523  -1.03822  0.16339 
H  3.9993  -0.78034  -0.05839 
C  1.62934  2.22749  -0.08291 
C  2.02127  3.65144  -0.07732 
C  0.97534  4.5978  -0.10991 
H  -0.06185  4.28415  -0.15797 
C  1.24696  5.96055  -0.07495 
H  0.43164  6.6704  -0.09978 
C  2.56313  6.40593  -0.00094 
H  2.77362  7.4645  0.03301 
C  3.61165  5.48831  0.03176 
H  4.63117  5.84314  0.09608 
C  3.36874  4.11496  -0.00913 
N  -1.96838  0.0  -0.03162 
N  -4.25733  0.05224  -0.25594 
N  -4.15346  0.23106  -2.77195 
N  -1.89595  0.20422  -3.63221 
N  -0.03162  0.0  -1.96838 
H  0.62936  0.64763  -2.42023 
H  0.45299  -0.82415  -2.35136 
C  -3.1823  -0.03618  0.69252 
H  -3.28454  -0.06751  1.7667 
C  -3.63204  0.12583  -1.52807 
C  -2.31306  0.0773  -1.33385 
C  -1.40973  0.08879  -2.35944 
C  -3.26828  0.27734  -3.83692 
H  -3.65488  0.38185  -4.84211 
C  -5.66652  0.05797  0.02988 
H  -6.24571  0.12257  -0.91583 
H  -5.90994  0.93131  0.66758 
H  -5.9361  -0.8809  0.55819 
N  0.0  0.0  1.91 
N  -0.5617  0.07909  3.18538 
C  0.07781  1.26687  3.86735 
C  -0.44086  -1.24639  3.87369 
C  -0.35439  1.33211  5.34369 
C  1.65078  1.35587  3.78502 
C  -0.4599  2.5265  3.16875 
C  -0.87001  -1.09363  5.35278 
C  0.96283  -1.9451  3.81117 
C  -1.43806  -2.1766  3.17341 
C  -0.08606  0.01337  6.06661 
H  0.15507  2.17399  5.86637 
H  -1.44782  1.52251  5.38564 
H  1.99891  2.30336  4.25984 
H  2.0274  1.3842  2.74132 
H  2.20099  0.57224  4.32331 
H  -1.56804  2.49512  3.15282 
H  -0.11864  2.56142  2.12939 
H  -0.10729  3.46284  3.64586 
H  -0.75585  -2.05618  5.89634 
H  -1.94355  -0.81008  5.38358 
H  1.30951  -2.11611  2.7724 
H  0.89961  -2.94939  4.29165 
H  1.76779  -1.4381  4.36058 
H  -1.12873  -2.35003  2.12414 
H  -2.43081  -1.68499  3.15473 
H  -1.52763  -3.15657  3.68209 
H  0.99934  -0.2136  6.10984 
H  -0.44675  0.10114  7.11262 
