54

Fe  0.0  0.0  0.0 
N  0.3713211206311463  2.1145772484102285  -7.743805596760465e-15 
N  1.8063262930881658  -0.025849815290283906  8.645861804268405e-15 
O  5.878273201055457  -0.15702776564339538  0.38631341425942683 
C  3.8835705844813067  1.0837754286083785  0.28945436942192465 
C  2.4365598973675846  -1.2002507237038214  0.031198242809993487 
C  4.564928970553823  -0.1267307482334894  0.29091229820655945 
C  2.524016261246204  1.1217300897594429  0.12495471632305541 
C  1.5314867029641621  -2.3759533617887687  -0.10826296890308484 
N  0.2223525862806881  -2.088727433119945  -9.020562075079395e-16 
C  3.7980386908981645  -1.2961617606060334  0.18681899260531895 
C  1.693338333866926  2.338079229479132  0.048845904296851574 
C  2.20789458983844  3.6239713187338713  0.0174977905950998 
C  -0.45395201371110283  3.166193760695181  -0.07205792685440127 
C  -0.002939595263195205  4.467738658234793  -0.1420446262648782 
C  1.3433671780408312  4.688908176894662  -0.08543812335699263 
C  -0.6455529469831374  -3.09568813081893  -0.051320060596290414 
C  1.9704685472748869  -3.649031622203001  -0.32220948844997416 
C  1.0538697391890421  -4.692387786280918  -0.39001575583155396 
C  -0.26678502215064226  -4.406297815343583  -0.22875019881489214 
H  4.153767296277765  -2.0749543481036974  0.17084010111133538 
H  2.748356305946463  -3.7636842290949257  -0.39217629945203986 
H  -1.426589991230179  -2.920191461020928  0.10683083065524787 
H  -0.9161232664996357  -5.120726713785566  -0.19071424875783724 
H  1.4381183196869975  -5.563770815914082  -0.6136360233670225 
H  3.1334681679637306  3.7739078325922333  0.03502044131771507 
H  4.353926924991336  1.7872372923948887  0.3526633809631918 
H  -1.3799851741469837  3.0600591163782385  -0.16226320967558813 
H  1.588029274800902  5.5566526452082785  -0.19130925313316197 
H  -0.6048112010014286  5.1540919087261985  -0.17038268805396625 
N  -2.029278395284774  0.0  0.029278395284774383 
N  0.02927839528477394  -2.220446049250313e-16  -2.029278395284774 
C  -2.520411390863207  0.654192233668176  1.2427883301688945 
H  -2.498264205728179  0.031362593515744885  1.972907657086219 
H  -3.4226042777750916  0.9516819870570665  1.1031643299602591 
H  -1.9633552801366991  1.4083836393399563  1.4475118342252036 
C  -2.0531023259113588  0.9242152100445209  -1.0858947418790736 
H  -1.592841802793292  1.741455126730953  -0.8408610718795013 
H  -2.9716840635143655  1.1477033668774392  -1.3031953748686906 
C  -1.3884167614360015  0.31128755682749676  -2.2832049783257373 
H  -1.854790913117339  -0.5041100273478827  -2.5254316291395673 
H  -1.4506895029434934  0.9241648110247433  -3.032233026500707 
C  0.8278822169369552  1.2294225991552012  -2.0555012618145776 
H  1.7491170505004128  1.0165876112313315  -1.8886657759467167 
H  0.5107779381189378  1.8319231319955207  -1.3792658040911228 
H  0.7479103256530564  1.6447834116106061  -2.9175656109677464 
C  0.5150592331152419  -0.8652373960515303  -3.117846448311651 
H  1.4407882502810234  -1.0712820079854881  -2.973577377924859 
H  0.4148548673031525  -0.40962343589599215  -3.9568413138404 
H  0.0049308462764767955  -1.6779040970620362  -3.1316095151937553 
H  -2.6251954610564745  -0.691708589615611  -0.16430716144416757 
P  0.0  0.0  2.27 
H  0.8983688990563866  -0.8900192527607542  3.056540450913622 
H  -0.898368899056387  0.8900192527607541  3.06004811304338 
