65

Pd  0.0  0.0  0.0 
P  1.4311326965030182  1.5633167321435533  -8.52341707657102e-17 
C  1.14156630574193  -2.884720016919698  -0.5924250115621561 
C  1.0884703712894743  -2.7977601691775216  -2.135770840151882 
C  2.4531970707337103  -2.4504919708415316  -2.7203905235773904 
C  2.577571708045989  -1.413796353327231  -3.584075764981991 
C  3.813147898841436  -1.130678696553276  -4.143815855704682 
C  4.873853127282084  -1.8280493429386357  -3.7833210014851337 
C  4.749007362763899  -2.8295761243050537  -2.866323650732308 
C  2.5756890531861787  -1.4545112920797405  0.5815390034973726 
C  2.7614277764686133  1.0501352421073231  1.0891149243783185 
C  3.524701452081997  2.0294072914129546  1.7993438237933919 
C  4.583315673735699  1.6932825834790117  2.6037152370279366 
C  4.9569569652424965  0.3589269106271413  2.7666517387983203 
C  4.277873986812779  -0.5908487390993897  2.081320006282165 
C  3.164316964514478  -0.26658195772558835  1.238932172450465 
C  0.8557011578606202  3.168897574074639  0.6494593708304839 
C  0.7418994939813934  4.273123224262001  -0.1414884370346327 
C  0.13037590971792778  5.428010182149568  0.35457361592929115 
C  -0.34706120771600735  5.460269479938092  1.6238084155635284 
C  -0.1543066539547222  4.4101900518563  2.477188329039176 
C  0.4493658153277642  3.228903667575203  2.0005790465629962 
C  2.229280351206996  1.9745820802207983  -1.596939712312752 
C  3.6117153387785814  2.1864349621034624  -1.6692954417053312 
C  4.149759543107325  2.4710995670743348  -2.9057018865547115 
C  3.4069733135920606  2.557323389943021  -4.028790787582777 
C  2.0193401338142047  2.432272793361772  -3.950170709521834 
C  1.4438776308202448  2.108935049572062  -2.708295328862017 
N  1.4311326965030184  -1.5633167321435533  1.6653345369377348e-16 
N  3.505213646505048  -3.144226863266651  -2.3132135677777543 
H  1.6352259374744216  -0.9307969044793551  -3.8183938844233567 
H  4.064354184250838  -0.1875595066381437  -4.636533072558982 
H  5.882060519558862  -1.7070948804729724  -4.08980584967194 
H  5.508885363001564  -3.5815720351964155  -2.5278757747491505 
H  3.0668887317521687  -2.3875723634596473  0.4525716709978013 
H  3.1551875509691625  3.0099771935198003  1.5682850564493875 
H  5.176963696053951  2.497695274869896  3.0024313233938127 
H  5.774793384398486  0.06322643260171157  3.433961043991709 
H  4.443253206220847  -1.6630821359118264  2.2096736838611104 
H  1.287728346923679  4.2490799007133155  -1.0770623635035492 
H  0.01072784489183598  6.08950297739526  -0.50375504048469 
H  -0.9919251059759653  6.246395509124063  2.0285875515837386 
H  -0.49936539595261764  4.373792561936275  3.505496934127361 
H  0.5691223611117012  2.3385267552194904  2.5740573928724326 
H  4.266330340923986  2.1428956628683866  -0.8113171328954272 
H  5.1977239416301515  2.6337024067762114  -3.1416733804889874 
H  3.800851976720101  2.6654287511440558  -5.036253134081201 
H  1.3287771242215254  2.5423513823397323  -4.8126837378471645 
H  0.46380164312037153  1.6209054044508946  -2.6868732884123103 
H  1.8255260350843872  -3.6463007289533436  -0.2174027219630813 
H  0.16011110476299684  -3.2122291259010667  -0.224709792940939 
H  0.8913840850016741  -3.832366021430038  -2.385038580226938 
H  0.32460445811306116  -2.1123625411928133  -2.4337255653033467 
Br  -1.654629867976521  1.654629867976521  0.0 
C  -1.352040782177733  -1.3199206589279684  -0.4819701001757076 
C  -1.6380700204479186  -1.599217458033982  -1.8139382277462257 
H  -1.1579680913617836  -1.159339363685303  -2.503515938957912 
C  -2.63068216563725  -2.52632649780156  -2.142289956238523 
H  -2.8368222554424674  -2.694399528648736  -3.0538898079700485 
C  -3.3101544432602585  -3.1961573187854975  -1.1619874135498987 
H  -3.9960123560788676  -3.811990145619169  -1.3868663427944008 
C  -2.9974710358883443  -2.9701089012107795  0.12423560353005347 
H  -3.438659168087169  -3.468581175155742  0.8017084178296768 
C  -2.0389854250767776  -2.015940632791841  0.4912562833419403 
H  -1.8619130127668426  -1.8492165108145995  1.4101568590026907 
