98

Pd  0.0  0.0  0.0 
N  1.88719  -0.02721  0.0 
N  0.20704  -2.01286  0.0 
C  2.15596  3.64466  0.04967 
H  3.22199  3.83796  0.0909 
C  1.72463  6.0119  -0.0036 
H  2.79122  6.21777  0.01488 
C  1.25031  4.69566  -0.00447 
C  0.82733  7.07501  -0.00607 
H  1.20131  8.08991  0.01311 
C  -0.54808  6.82965  -0.0204 
H  -1.23751  7.66079  -0.01011 
C  -1.03601  5.51513  -0.0461 
H  -2.1034  5.34711  -0.05753 
C  -0.14812  4.42936  -0.03941 
C  -0.62338  3.08925  -0.05832 
H  -1.68142  2.87091  -0.09439 
C  0.30576  2.04007  0.0 
C  1.68253  2.34424  0.08356 
C  2.5833  1.18187  0.23971 
C  4.08568  1.11168  0.14041 
H  4.68791  2.01183  0.09273 
C  4.67895  -0.09818  0.11782 
H  5.75969  -0.16868  0.05673 
C  3.87291  -1.35152  0.13829 
H  4.37711  -2.31119  0.16195 
C  2.53192  -1.27689  0.06392 
C  1.59703  -2.41964  0.03947 
C  1.93484  -3.86972  -0.02515 
H  2.97217  -4.19348  -0.01179 
C  0.9388  -4.75298  -0.11042 
H  1.17944  -5.81203  -0.15773 
C  -0.48184  -4.3096  -0.15521 
H  -1.25698  -5.06344  -0.22543 
C  -0.8171  -3.00266  -0.12073 
H  -1.86202  -2.71448  -0.16059 
Cl  6.72639  -0.07596  -3.08198 
N  -1.92986  0.0  -0.07014 
N  -1.41902  -0.0686  -2.37966 
H  -1.66147  -0.09438  -3.3823 
N  0.80116  0.02391  -2.88224 
C  -2.83818  0.15056  1.05555 
H  -2.46378  0.09817  2.09477 
C  -4.27475  -0.17204  0.74319 
H  -4.98759  -0.2638  1.55643 
C  -4.67878  -0.33308  -0.52673 
H  -5.72269  -0.5383  -0.73841 
C  -3.71283  -0.25625  -1.6457 
H  -4.06414  -0.34379  -2.66886 
C  -2.4049  -0.12304  -1.38191 
C  -0.07014  0.0  -1.92986 
C  2.19625  0.00197  -2.89803 
C  2.87375  -1.21026  -2.77065 
H  2.31888  -2.12488  -2.59931 
C  4.26585  -1.23751  -2.83061 
H  4.78337  -2.17406  -2.67619 
C  4.9764  -0.0527  -3.05669 
C  4.28439  1.14912  -3.25235 
H  4.82285  2.06647  -3.45539 
C  2.89363  1.17357  -3.17847 
H  2.35466  2.10186  -3.34114 
N  0.0  0.0  1.91 
C  -0.23702  -1.3782  2.28828 
H  -1.2331  -1.75676  2.05227 
C  0.31139  0.91451  2.96141 
H  0.3534  1.98162  2.7791 
C  0.21862  -1.89457  3.52787 
H  0.20358  -2.98059  3.61782 
C  0.44761  -1.06973  4.51112 
C  0.44878  0.42897  4.23447 
H  0.61091  1.13319  5.03833 
C  0.57788  -1.73957  5.8196 
N  0.39301  -1.01478  6.92444 
H  0.23735  -0.00573  6.8193 
O  0.73379  -2.95372  5.88469 
C  0.29688  -1.50742  8.25396 
N  0.20136  -0.54558  9.18351 
C  0.26534  -2.85142  8.65184 
H  0.33347  -3.69051  7.98207 
N  0.02155  0.3937  11.28134 
H  0.23448  1.27275  10.7812 
C  0.12038  -3.13368  10.01164 
H  0.09779  -4.16267  10.34659 
C  0.00933  -2.10049  10.94731 
H  -0.07943  -2.34294  11.98611 
C  0.07188  -0.76926  10.48816 
C  -0.35951  0.49956  12.57168 
O  -0.8102  -0.45023  13.19156 
C  -0.35094  1.84304  13.16476 
C  -1.47845  2.32273  13.82406 
H  -2.36672  1.70832  13.90644 
C  -1.47317  3.62746  14.3121 
H  -2.35785  4.02441  14.7856 
C  0.75497  3.95171  13.55209 
H  1.62418  4.58972  13.4639 
C  0.77626  2.66757  13.01313 
H  1.66758  2.31163  12.5038 
N  -0.3643  4.40566  14.17785 
