40

Ru  0.0  0.0  0.0 
Si  2.4263  0.02236  -0.47652 
O  1.44893  1.2604  0.0 
N  1.44893  -1.2604  0.0 
C  1.67873  2.56881  0.07003 
C  0.45828  3.50465  0.06741 
C  2.50514  3.04904  -1.17122 
C  2.48843  2.91973  1.33815 
C  2.73905  0.05573  -2.32845 
C  4.08396  0.00406  0.40729 
C  1.56575  -2.68723  -0.41588 
C  0.91273  -3.57983  0.67042 
C  0.94078  -2.94587  -1.7961 
C  3.05199  -3.12559  -0.44365 
H  0.76642  4.57348  0.0914 
H  -0.15032  3.37536  0.98625 
H  -0.11661  3.40991  -0.88218 
H  3.51055  2.59218  -1.19512 
H  2.67836  4.14659  -1.15201 
H  1.96266  2.81112  -2.11318 
H  2.68643  4.01483  1.37774 
H  1.92663  2.63129  2.24854 
H  3.47286  2.42615  1.34622 
H  3.44881  0.86525  -2.58483 
H  1.78461  0.21583  -2.86759 
H  3.21105  -0.88655  -2.66141 
H  4.67625  -0.88045  0.1062 
H  4.66518  0.90342  0.12037 
H  3.93068  -0.00805  1.50545 
H  1.38984  -3.39404  1.65724 
H  -0.16184  -3.43649  0.80912 
H  1.04242  -4.66005  0.42477 
H  -0.13276  -2.69942  -1.82654 
H  1.44362  -2.35083  -2.57983 
H  1.04425  -4.01884  -2.06707 
H  3.63041  -2.57475  -1.20659 
H  3.52509  -2.96448  0.54839 
H  3.14138  -4.20815  -0.68976 
Cl  -1.58392  1.58392  0.0 
Cl  -1.58392  -1.58392  0.0 
