126

Pd  0.0  0.0  0.0 
C  1.01822  2.83839  0.12481 
C  2.35168  2.47666  0.34 
C  2.85773  1.09045  0.46305 
H  3.74309  1.07692  -0.21785 
O  0.02047  1.95298  0.0 
N  -0.54896  -2.93998  -0.25401 
N  1.98785  0.01132  0.0 
N  2.61615  -1.23845  0.14316 
N  0.39168  -1.96429  0.0 
C  0.67331  4.1945  0.0639 
H  -0.35765  4.48277  -0.09625 
C  4.0686  -1.39433  0.01887 
H  4.41137  -2.44265  -0.07089 
H  4.57738  -0.95482  0.88851 
H  4.4108  -0.92041  -0.9236 
C  -0.22317  -4.32  -0.10725 
C  1.0669  -4.6617  0.06577 
H  1.3813  -5.69605  0.14723 
C  1.73373  -2.32123  0.14169 
C  2.10027  -3.62608  0.17202 
H  3.1127  -3.98057  0.24919 
C  -1.31199  -5.38134  -0.12845 
C  -2.7048  -4.7603  -0.09407 
H  -2.76801  -4.08502  -0.93512 
H  -2.88779  -4.2044  0.83506 
H  -3.51243  -5.51398  -0.17986 
C  -1.18856  -6.27606  1.11909 
H  -1.24265  -5.65074  2.04022 
H  -0.22846  -6.82634  1.13262 
H  -2.00864  -7.02118  1.14661 
C  1.64344  5.18456  0.22897 
H  1.36429  6.22769  0.20095 
C  -1.18345  -6.17701  -1.43003 
H  -0.17309  -6.62098  -1.52554 
H  -1.34816  -5.49323  -2.29591 
H  -1.94779  -6.97957  -1.46282 
C  2.97286  4.82453  0.43795 
H  3.73445  5.58069  0.56947 
C  3.32394  3.48201  0.48584 
H  4.36408  3.21722  0.64176 
P  -2.03171  0.0  0.03171 
P  0.03171  0.0  -2.03171 
F  -5.69357  -5.53399  -3.88996 
F  -3.91887  -5.25483  -5.96639 
C  -3.63311  -1.83443  -1.53975 
C  -2.50938  -0.98462  -1.39573 
C  -1.54472  -0.89562  -2.40004 
C  -1.69235  -1.64212  -3.61475 
C  -2.85821  -3.44388  -4.83677 
C  -3.85211  -4.41902  -4.89764 
C  -4.75636  -4.55652  -3.856 
C  -4.69704  -3.695  -2.765 
C  -3.70402  -2.68971  -2.67551 
C  -2.75885  -2.57987  -3.71682 
C  -4.71871  -1.89016  -0.49891 
C  -0.71134  -1.52802  -4.77493 
C  -2.6837  -0.90292  1.51157 
C  -2.20257  -2.13379  2.00228 
C  -2.69676  -2.73953  3.15161 
C  -3.68601  -2.10884  3.88746 
C  -4.19895  -0.87985  3.45448 
C  -3.71416  -0.28418  2.27033 
C  -2.96499  1.51187  -0.34298 
C  -2.72074  2.67296  0.40655 
C  -3.49715  3.81772  0.21396 
C  -4.55253  3.80429  -0.69985 
C  -4.82892  2.64882  -1.42597 
C  -4.04221  1.51449  -1.25567 
C  -0.18797  1.4509  -3.09528 
C  0.84522  2.41059  -3.13387 
C  0.66826  3.62164  -3.80094 
C  -0.54778  3.91089  -4.41315 
C  -1.59386  2.98483  -4.35024 
C  -1.41693  1.76498  -3.7012 
C  1.48524  -0.92649  -2.73056 
C  1.45923  -2.33098  -2.61621 
C  2.51622  -3.14279  -2.98996 
C  3.61338  -2.58149  -3.61067 
C  3.62209  -1.21011  -3.88018 
C  2.57169  -0.38197  -3.44197 
H  -4.74307  -0.98216  0.1108 
H  -4.65074  -2.80448  0.12297 
H  -5.7023  -1.85204  -1.00457 
H  -1.26942  -1.3145  -5.70946 
H  -0.13647  -2.4742  -4.91071 
H  0.00087  -0.69188  -4.70345 
H  -2.1672  -3.41291  -5.66687 
H  -5.40985  -3.86035  -1.97361 
H  -1.39703  -2.64652  1.63953 
H  -2.24147  -3.66072  3.48962 
H  -4.00823  -2.55491  4.81866 
H  -4.93951  -0.37324  4.05613 
H  -4.11944  0.67445  1.97894 
H  -1.94099  2.69565  1.15499 
H  -3.29356  4.70939  0.79064 
H  -5.16879  4.68155  -0.83352 
H  -5.66584  2.61962  -2.112 
H  -4.32851  0.6453  -1.82018 
H  1.78337  2.25505  -2.62382 
H  1.4752  4.3477  -3.83553 
H  -0.70079  4.86024  -4.90618 
H  -2.55828  3.22125  -4.77782 
H  -2.26737  1.10742  -3.6364 
H  0.62111  -2.83371  -2.20842 
H  2.46731  -4.20839  -2.78901 
H  4.4342  -3.22097  -3.90393 
H  4.45458  -0.78796  -4.42019 
H  2.64128  0.65637  -3.67741 
O  -0.54629  1.13158  9.30655 
O  -1.65322  1.07009  7.39243 
O  0.0  0.0  1.83 
N  0.37765  -0.1742  6.02936 
C  -0.70937  0.66398  8.05826 
C  0.34117  -0.25989  7.47439 
H  0.1303  -1.30924  7.79397 
H  1.32311  0.02925  7.88399 
C  1.49895  0.42852  5.29762 
H  2.31961  0.88587  5.87557 
C  1.37334  0.49391  3.76576 
H  2.17961  0.90026  3.17552 
C  0.24358  0.05754  3.17033 
C  -0.82115  -0.40257  4.0418 
H  -1.72036  -0.59378  3.6464 
C  -0.76897  -0.56722  5.3288 
H  -1.64139  -0.97162  5.844 
