77

Pd  0.0  0.0  0.0 
P  1.6009657858617716  1.3888875233437734  0.0 
N  1.6009657858617716  -1.388887523343773  0.0 
N  2.9442281346369095  0.43537320505566135  -0.46384280438819403 
C  2.7602389625847863  -0.9322763152070667  -0.37499892844446225 
C  1.3391379342815861  -2.8470637694116983  -0.13234950525090872 
H  2.091526274340146  -3.2397123790608613  -0.6612054828899256 
C  0.05519313357901856  -3.0693869703981984  -0.9302949940231908 
H  0.15922747578101393  -2.6869809072194313  -1.8386373845823454 
H  -0.6956772732369512  -2.60198482365192  -0.4856759712801143 
C  -0.26328345419829446  -4.561692700821975  -1.036622412792186 
H  -1.124364797238711  -4.685360137610871  -1.510177663788097 
H  0.4442482973010009  -5.015385299689129  -1.5599922403076134 
C  -0.351545481234552  -5.1842874973525  0.3540953673187187 
H  -1.089031693966481  -4.75893888195294  0.857271659892206 
H  -0.5544438966255556  -6.1504137188405394  0.27016594944236544 
C  0.9530864462353736  -5.007594193628973  1.1230702630373204 
H  1.6760115022711486  -5.500499197449468  0.6605207731830975 
H  0.8533919906363161  -5.390267506670497  2.030400743627851 
C  1.338214972258837  -3.525809495149394  1.2355974410646045 
H  0.6958781492752306  -3.0630737233910614  1.8309418635416934 
H  2.239213548942641  -3.4510758840718694  1.6401088280354774 
C  4.212363529193401  1.1613056675870042  -0.7918576987394021 
H  3.934728545342253  2.1176597010671  -0.8849982290595584 
C  5.229622451584308  1.1685868331457898  0.34931346696898524 
H  5.645931884600104  0.2740828476761943  0.4353900953943086 
H  4.77702005532007  1.3841429994789924  1.2028079426696752 
C  6.302264102288077  2.216243058393516  0.04944207307619908 
H  5.892193713854693  3.117101608110871  0.06010180718284586 
H  6.992861514430838  2.1889100783199353  0.7585458613484606 
C  6.963032599959834  1.9829484974200569  -1.3030218341334905 
H  7.495132335371778  1.1484503213477233  -1.2660995413215221 
H  7.582609990518871  2.730442803150841  -1.4960055381297384 
C  5.938109630938956  1.8755175661947743  -2.430699785762233 
H  6.403346442671009  1.6412311754461546  -3.2730098866866877 
H  5.5010227127041755  2.7539389318520566  -2.5588887098735893 
C  4.873948875663409  0.8217510333394402  -2.133240559706855 
H  5.289041900482281  -0.07647597139060203  -2.088001652553473 
H  4.19423749616991  0.8152484081461056  -2.8543545981589427 
C  3.924975932991223  -1.8229139796753246  -0.7022719496347202 
H  3.911698129245737  -2.606209611405701  -0.1154099699156308 
H  4.761661032888931  -1.3301163099603588  -0.5695641490627029 
H  3.8614594944126095  -2.1134626441405855  -1.636085311933506 
C  2.205574360934693  2.5541080453798335  1.2382995219147694 
C  2.289470504986531  2.0983616984934486  2.559818176460751 
H  2.0236141018106544  1.212249882874972  2.7742706726264843 
C  2.7614042259490343  2.941705428862666  3.5567599678735857 
H  2.8342096042593967  2.628049094078116  4.450309519123323 
C  3.126697817771946  4.245540307183319  3.242604621193482 
H  3.4316060257734193  4.82856182360569  3.9276207276332493 
C  3.049082112400947  4.699331812547714  1.9386753010465185 
H  3.3020993943085086  5.591622400641115  1.7313858863239022 
C  2.6005377437605475  3.854019711843211  0.9289193098468937 
H  2.5640721911882975  4.161936510584695  0.0311348097977871 
C  1.1346716694253116  2.3501780508773953  -1.4497716160316187 
C  1.4589336508316972  1.9137825726166395  -2.7330311743314954 
H  1.9237163870629856  1.09361987343884  -2.8552033682986613 
C  1.0976586789492018  2.6838013120932764  -3.8346902620470003 
H  1.3272769910772797  2.3917141213153466  -4.708040984104806 
C  0.40764484119884736  3.8719041694270757  -3.6685115807779956 
H  0.19064765436045206  4.40586643241476  -4.424522045394267 
C  0.033597617879569386  4.2820788707077595  -2.3948228396970097 
H  -0.4637824722002719  5.0836204003773675  -2.2811714771575233 
C  0.3847807119296123  3.5232301538134045  -1.2859919602021888 
H  0.11687393367794052  3.799152191097879  -0.416996829313867 
Br  -1.654629867976521  1.654629867976521  0.0 
C  -1.352040782177733  -1.3199206589279684  -0.4819701001757076 
C  -1.6380700204479186  -1.599217458033982  -1.8139382277462257 
H  -1.1579680913617836  -1.159339363685303  -2.503515938957912 
C  -2.63068216563725  -2.52632649780156  -2.142289956238523 
H  -2.8368222554424674  -2.694399528648736  -3.0538898079700485 
C  -3.3101544432602585  -3.1961573187854975  -1.1619874135498987 
H  -3.9960123560788676  -3.811990145619169  -1.3868663427944008 
C  -2.9974710358883443  -2.9701089012107795  0.12423560353005347 
H  -3.438659168087169  -3.468581175155742  0.8017084178296768 
C  -2.0389854250767776  -2.015940632791841  0.4912562833419403 
H  -1.8619130127668426  -1.8492165108145995  1.4101568590026907 
