92

Fe  0.0  0.0  0.0 
S  0.48718  -2.29548  -0.57747 
S  -1.73142  0.00096  -0.34776 
S  2.87575  0.01575  -0.34671 
S  0.67818  2.31065  -0.57755 
N  0.56606  -0.01613  1.50278 
C  -1.26069  -2.74973  -0.34536 
C  -1.6865  -4.11284  -0.28974 
C  -3.07363  -4.33848  -0.11152 
H  -3.45891  -5.33529  -0.06639 
C  -4.02048  -3.30438  0.01682 
C  -3.56486  -1.98483  -0.04301 
H  -4.23046  -1.13978  0.03929 
C  -2.22315  -1.70923  -0.22268 
C  -1.89472  0.47611  1.42513 
H  -1.91806  1.58913  1.4537 
H  -2.84423  0.1069  1.86078 
C  2.40882  2.7708  -0.37203 
C  2.85296  4.12977  -0.37483 
C  4.24393  4.3503  -0.22133 
H  4.64333  5.34316  -0.21514 
C  5.17856  3.31183  -0.09485 
C  4.70166  1.99738  -0.10696 
H  5.37052  1.15325  -0.03315 
C  3.34873  1.73169  -0.23693 
C  3.06045  -0.49399  1.38446 
H  3.28527  -1.58348  1.41423 
H  3.92663  0.0253  1.83968 
C  -0.68557  -0.03856  2.22569 
C  -0.60139  0.10774  3.70657 
H  -1.50155  0.3054  4.28376 
C  0.57967  -0.0783  4.3067 
H  0.62996  -0.03549  5.38971 
C  1.8153  -0.33057  3.50941 
H  2.73687  -0.52944  4.04504 
C  1.80434  -0.26621  2.15485 
C  -0.71327  -5.33196  -0.40579 
C  0.30994  -5.3149  0.75484 
H  0.98  -6.19815  0.69733 
H  -0.22104  -5.34484  1.73045 
H  0.96884  -4.4332  0.75954 
C  0.00712  -5.34282  -1.77573 
H  0.67139  -6.23064  -1.85906 
H  0.64757  -4.4659  -1.94981 
H  -0.73586  -5.38637  -2.60134 
C  -1.44524  -6.6952  -0.30414 
H  -0.72986  -7.54299  -0.37044 
H  -2.17426  -6.81841  -1.13704 
H  -1.97409  -6.79116  0.66887 
C  -5.48924  -3.67123  0.23633 
C  -5.6187  -4.48493  1.53479 
H  -6.67487  -4.76131  1.72399 
H  -5.25591  -3.88476  2.39924 
H  -5.0368  -5.42489  1.50189 
C  -6.39411  -2.41786  0.3581 
H  -6.34505  -1.8021  -0.56842 
H  -6.08092  -1.79098  1.22432 
H  -7.45284  -2.70654  0.51671 
C  -5.99845  -4.49926  -0.96354 
H  -5.90843  -3.92438  -1.90711 
H  -7.06985  -4.77054  -0.81661 
H  -5.4383  -5.4484  -1.07668 
C  1.89605  5.34644  -0.56857 
C  0.87332  5.41519  0.5859 
H  0.19158  6.28068  0.44851 
H  1.40564  5.53296  1.55479 
H  0.23392  4.52292  0.66737 
C  2.64443  6.70482  -0.56644 
H  3.38243  6.75358  -1.39774 
H  3.16581  6.86956  0.40279 
H  1.93859  7.54823  -0.70294 
C  1.18249  5.26414  -1.9413 
H  1.93234  5.22077  -2.76132 
H  0.54146  6.15702  -2.10262 
H  0.5182  4.39477  -2.05314 
C  6.67595  3.65324  0.02901 
C  6.90055  4.46284  1.32264 
H  7.9689  4.74487  1.42749 
H  6.6058  3.85864  2.20858 
H  6.30248  5.39799  1.33331 
C  7.12005  4.48679  -1.19635 
H  6.95081  3.91767  -2.13625 
H  8.19923  4.73826  -1.1258 
H  6.57111  5.44769  -1.27277 
C  7.57368  2.39602  0.08579 
H  7.44285  1.78101  -0.83174 
H  7.33462  1.77702  0.97742 
H  8.6446  2.68111  0.14935 
P  0.0  0.0  -2.27 
H  -0.62818  -0.82207  -3.22561 
H  -0.67973  1.17159  -2.66631 
H  1.3143  -0.35241  -2.62476 
