20

Fe  0.0  0.0  0.0 
O  1.16166  1.41458  0.0 
N  1.16166  -1.41458  0.0 
O  3.15225  2.40517  -0.26278 
N  2.47419  1.27744  -0.17065 
O  6.56634  0.61596  -0.87092 
O  7.59848  -1.49685  -1.05697 
N  6.5435  -0.69699  -0.85786 
N  5.34037  1.0817  -0.65809 
C  2.52621  -1.19495  -0.18192 
C  3.30732  -2.37736  -0.3068 
H  2.83739  -3.35321  -0.23618 
C  3.11737  0.12534  -0.27544 
C  4.67396  -2.32887  -0.53242 
H  5.25755  -3.23391  -0.63287 
C  5.2309  -1.07521  -0.62825 
C  4.52412  0.0927  -0.50881 
H  0.81673  -2.38598  0.04071 
Cl  -1.52028  1.52028  0.0 
Cl  -1.52028  -1.52028  0.0 
