154

Pd  0.0  0.0  0.0 
P  0.0079  -2.28624  0.0 
P  0.15821  2.32297  0.0 
N  2.23389  -0.03673  0.0 
C  3.05642  1.01023  -0.28074 
C  2.82961  2.35594  -0.03535 
C  3.74747  3.30604  -0.53087 
H  3.54192  4.35942  -0.35098 
C  4.90332  2.93663  -1.23641 
C  5.1488  1.54855  -1.42167 
H  6.0089  1.17205  -1.95426 
C  4.2064  0.63141  -0.93289 
C  4.14955  -0.71936  -1.03635 
C  4.99221  -1.61978  -1.69254 
H  5.85053  -1.24123  -2.22457 
C  4.66545  -3.00282  -1.67698 
C  3.52361  -3.39565  -0.93391 
H  3.24503  -4.43247  -0.84544 
C  2.69155  -2.44996  -0.30717 
C  2.98355  -1.10804  -0.40604 
C  1.58886  -2.89435  0.54468 
H  1.77921  -2.55709  1.58276 
H  1.52869  -4.00703  0.56127 
C  1.69808  2.78785  0.76005 
H  1.69241  3.90306  0.85217 
H  1.75923  2.37715  1.78473 
C  5.8323  4.03689  -1.79886 
C  5.04284  4.84757  -2.84722 
H  4.69836  4.17907  -3.66645 
H  5.6736  5.64859  -3.28815 
H  4.14713  5.3308  -2.40078 
C  6.30406  4.9859  -0.67055 
H  5.45447  5.50094  -0.17659 
H  6.96078  5.78292  -1.08473 
H  6.87303  4.42821  0.10234 
C  7.09185  3.46219  -2.48324 
H  7.69518  2.87678  -1.75621 
H  7.73134  4.28255  -2.87523 
H  6.81552  2.81298  -3.34059 
C  5.48385  -4.03942  -2.48501 
C  5.02736  -3.95473  -3.9541 
H  3.93631  -4.1658  -4.02689 
H  5.5624  -4.70321  -4.57805 
H  5.21289  -2.94413  -4.37474 
C  6.99966  -3.75875  -2.41079 
H  7.2553  -2.78196  -2.8692 
H  7.56183  -4.52514  -2.98857 
H  7.35476  -3.77225  -1.35975 
C  5.25394  -5.49753  -2.00781 
H  5.51964  -5.60523  -0.93376 
H  5.88091  -6.20575  -2.59154 
H  4.2042  -5.8246  -2.16335 
C  -1.3297  -3.0253  0.96069 
C  -1.00402  -3.70321  2.15783 
H  0.01212  -3.75295  2.51991 
C  -1.99377  -4.31674  2.92392 
H  -1.7305  -4.82445  3.84527 
C  -3.31844  -4.28178  2.49365 
H  -4.08421  -4.76551  3.08436 
C  -3.64862  -3.63135  1.29926 
H  -4.67469  -3.62067  0.96323 
C  -2.65929  -3.00575  0.53318 
H  -2.92135  -2.52411  -0.39808 
C  -0.04089  -3.33916  -1.55598 
C  -0.45373  -4.68323  -1.66797 
H  -0.69917  -5.24811  -0.78737 
C  -0.56871  -5.2857  -2.93847 
H  -0.86592  -6.31216  -3.05708 
C  -0.31314  -4.5586  -4.13148 
H  -0.42614  -4.97625  -5.12514 
C  0.13143  -3.27053  -4.029 
H  0.35865  -2.67381  -4.91324 
C  0.30241  -2.72905  -2.77543 
H  0.73669  -1.81769  -2.82887 
C  -1.23765  3.15437  0.77421 
C  -1.02813  3.84178  1.98861 
H  -0.06479  3.83794  2.48255 
C  -2.06123  4.56852  2.57961 
H  -1.88662  5.10189  3.50713 
C  -3.31278  4.61555  1.96595 
H  -4.11267  5.1839  2.4209 
C  -3.52522  3.94145  0.75845 
H  -4.49083  3.9897  0.27724 
C  -2.48714  3.21979  0.16008 
H  -2.64714  2.73364  -0.78914 
C  0.32297  3.3802  -1.53291 
C  0.73797  2.75653  -2.7315 
H  1.10774  1.79131  -2.76559 
C  0.70619  3.36551  -3.97353 
H  0.98363  2.81085  -4.86397 
C  0.3165  4.6776  -4.06874 
H  0.29635  5.13588  -5.04956 
C  -0.01366  5.3781  -2.90097 
H  -0.28335  6.41519  -2.99235 
C  -0.02556  4.73417  -1.63838 
H  -0.32352  5.28552  -0.76395 
O  0.47954  0.0  -1.87588 
N  -1.83954  0.0  -0.60412 
C  -1.86712  0.09931  -2.01125 
N  -0.59007  0.07417  -4.07627 
H  -1.47288  0.05878  -4.59737 
C  1.90904  -0.0202  -4.42914 
H  2.16836  -0.28323  -3.41675 
C  1.43545  0.68188  -7.09485 
H  1.23383  0.96441  -8.11931 
C  -0.66386  0.05329  -2.65055 
C  2.97999  0.15424  -5.30849 
H  3.98327  0.01402  -4.92762 
C  0.58061  0.16212  -4.88726 
C  0.36976  0.49077  -6.23153 
H  -0.63515  0.63672  -6.60418 
C  -4.26755  0.51362  -1.89834 
H  -5.21738  0.74442  -2.37034 
C  2.74702  0.52018  -6.65213 
C  -4.18117  0.43585  -0.41596 
H  -5.07346  0.61726  0.17332 
C  -3.00614  0.17842  0.1899 
H  -2.94608  0.15801  1.26874 
C  -3.19232  0.3346  -2.66618 
H  -3.30721  0.44045  -3.73617 
C  5.07845  0.5019  -7.29063 
H  5.42858  1.09749  -6.42087 
H  5.66304  0.79683  -8.18352 
H  5.23058  -0.5819  -7.1014 
O  3.7456  0.73888  -7.53282 
S  0.0  0.0  2.23 
C  -1.18657  -0.45697  3.55018 
H  -2.09801  0.16302  3.46551 
H  -1.43591  -1.52991  3.47861 
C  -0.51829  -0.19953  4.97353 
C  -1.52809  -0.58958  6.09533 
H  -2.45645  0.00342  5.98913 
H  -1.79273  -1.66829  6.00961 
C  -0.92013  -0.33416  7.50138 
H  -1.66128  -0.61195  8.28217 
C  0.35436  -1.18488  7.68364 
H  0.78534  -1.01007  8.69821 
H  0.10582  -2.26678  7.61324 
C  1.38042  -0.80402  6.59942 
H  2.29876  -1.41779  6.73566 
C  0.77942  -1.05628  5.19204 
H  0.54453  -2.14467  5.0868 
H  1.54942  -0.81006  4.43018 
C  -0.13319  1.30393  5.16244 
H  0.62077  1.6116  4.40616 
H  -1.03286  1.94583  5.03052 
C  0.47096  1.54867  6.5713 
H  0.73678  2.62179  6.68314 
C  -0.5625  1.16023  7.64867 
H  -0.14617  1.35487  8.66333 
H  -1.47696  1.78289  7.5364 
C  1.74425  0.68857  6.75056 
H  2.50885  0.97252  5.99625 
H  2.18648  0.87144  7.75723 
