67

Ni  0.0  0.0  0.0 
C  2.9704119132564983  -0.4779613527704972  0.12063999843165868 
H  3.4677469209445686  -0.7730962753971785  0.9103016522898468 
C  3.754308677053327  -0.8643134374329423  -1.1315326894935558 
C  4.9646152965028625  -0.3812138788570034  -1.4495774873136025 
H  5.324371761118192  0.29721591911311007  -0.9263984019195903 
C  5.759335522400193  -0.8920791178795546  -2.6161900965837876 
H  6.697582549831925  -0.9331317084675584  -2.3719632137031983 
H  5.669703178534998  -0.2785385416777739  -3.3603218955866447 
C  5.290114334310844  -2.274427479099748  -3.0427495119995838 
H  5.539106637040039  -2.9258148094431395  -2.3666974215141554 
H  5.724929127520383  -2.522757751303537  -3.873639198729049 
C  3.7736906506766337  -2.2939850976284757  -3.2337496462162196 
H  3.5312409694672278  -1.7051220854901055  -3.9659039981235065 
H  3.486688106198822  -3.1914775614493878  -3.4635233541288954 
C  3.0713648189376026  -1.846512039822763  -1.972275362447354 
C  1.8668515166324673  -2.284555714325719  -1.5270992357313098 
C  0.9881042202214322  -3.2860531293218793  -2.1492792874898985 
C  0.8058055156335082  -3.3599212693066733  -3.538286332180732 
H  1.1956520185053074  -2.7288537456662327  -4.100478438853313 
C  0.03307381542413168  -4.3912934927666445  -4.059594836012016 
H  -0.08642499959785188  -4.475697405044665  -4.977957788662265 
C  -0.5549359167068546  -5.288088526236737  -3.189754090321941 
H  -1.0708891589795149  -5.993479672058642  -3.510121681042987 
C  -0.36067764164626115  -5.1134629513322185  -1.8363082320919852 
H  -0.7919389356675273  -5.701291561519234  -1.2569536245115285 
C  2.687527074278863  0.9926521644580752  0.2442532696496169 
C  3.6845108345129134  1.877110549988679  0.6000629885924358 
H  4.528727172542496  1.557173960028622  0.8269683719764578 
C  3.435921681570072  3.2427488304728453  0.6210527459850526 
H  4.103968338182821  3.843037976899829  0.8630805445340558 
C  2.1658702219636523  3.694262076768027  0.2727009433894214 
H  1.9845848541766886  4.6050250367700585  0.22759233983440177 
C  1.177282051139128  2.7642542025568724  -0.005067003665480026 
H  0.31984209969757393  3.0659296896181973  -0.2010423342003212 
C  1.3133549722722162  -2.579207416757804  1.411990815566087 
H  0.4720567514772167  -3.0752645522257764  1.3300914136238409 
C  2.4555572827275842  -3.6111383944479694  1.460941395479417 
H  2.4674016706599327  -4.124870903381496  0.6381818378081748 
H  3.3057718501118307  -3.15329927582208  1.5449100852601523 
C  2.252568210116215  -4.550386776999513  2.6545261525346833 
H  2.987891573677855  -5.179437512417846  2.699232564491526 
H  1.4315046621395922  -5.053046981013204  2.5339199359248177 
C  2.178700892653363  -3.7489751077792257  3.9669444760308474 
H  2.017189604391719  -4.356757358825837  4.706541108714358 
H  3.0256623406351384  -3.306356657287299  4.12227210691716 
C  1.0720813740301938  -2.7176636860107046  3.910490491831032 
H  1.0736345840912103  -2.2000328719143454  4.7311081846919825 
H  0.21501427382650928  -3.1680214990678346  3.8430106728711015 
C  1.2459457233800766  -1.774577044127335  2.7122842349927616 
H  0.5004033054543906  -1.154800761424351  2.6737661551808225 
H  2.061185227380399  -1.2595407556756049  2.8190975894723964 
N  1.414407337898103  1.4420651450263953  -1.4413977280059761e-15 
N  0.40220225463544956  -4.156975091018008  -1.3012605828861192 
P  1.4144073378981037  -1.4420651450263953  2.220446049250313e-16 
Br  -1.5839191898578664  1.5839191898578664  0.0 
C  -1.308147545195113  -1.308147545195113  0.0 
C  -2.5481111008682706  -1.081588847540519  0.5874691967409313 
H  -2.7399447190521347  -0.23895174706744582  0.9782000501948406 
C  -3.514692573752534  -2.090568128666735  0.6049610958635798 
H  -4.3504064840370384  -1.9365173000894942  1.0287619599160838 
C  -3.2692344052199704  -3.300825455744854  0.016423527177974795 
H  -3.920165040096455  -3.990528127682657  0.045080339651694334 
C  -2.0939695739763726  -3.5035118821402764  -0.6007549227026172 
H  -1.9425337635726068  -4.327915038834382  -1.0474288760065322 
C  -1.0854604411866036  -2.53050399443706  -0.5998012209931928 
H  -0.24896772463074335  -2.712575304189299  -1.0129111498427692 
