52

Pd  0.0  0.0  0.0 
C  1.3775492927664468  -2.7657739506898897  -0.17648728397130517 
H  0.49949952454198177  -3.1208779459192026  -0.10380023496560792 
C  2.429487937016722  -3.6531476599227206  -0.46362587227890706 
H  2.2507926530310534  -4.577759716913237  -0.5881542206540724 
C  3.6987574180806817  -3.1906287708732695  -0.5620406664518911 
H  4.419558193164834  -3.790990702479598  -0.7171689479354032 
C  3.9383564474316346  -1.8015575762443559  -0.42972365550361646 
C  5.222225656580758  -1.2270823151156958  -0.5667674373762674 
H  5.974125559523946  -1.793557803502779  -0.6977800971104884 
C  5.40516419130402  0.12807424093356085  -0.5149456165858985 
H  6.276523596374096  0.4952358546933718  -0.612493535975298 
C  4.299593275473203  0.9758209054796638  -0.31589157161314096 
H  4.423686604889986  1.9186241703215092  -0.313669096008525 
C  3.036351761668569  0.4521272665375198  -0.12306701318726032 
C  2.8266986827533866  -0.9501850927003399  -0.17461799407153927 
C  1.803857951320641  2.836069347027343  1.1345142741750949 
C  0.8867215557528405  3.8907433337617663  1.0953331099422696 
H  0.21908185178438555  3.9119069415433394  0.4201244404255029 
C  0.9499982761176268  4.904870246850978  2.0396838450020973 
H  0.3313546903718392  5.6251052132140185  2.0055932738183873 
C  1.9148137150924902  4.86820012450987  3.0325050780764546 
H  1.959835477613748  5.566124686407651  3.675317093209396 
C  2.8152015927785796  3.8156371649827503  3.0912482133985004 
H  3.4682254553595246  3.790548165073345  3.7800052583595156 
C  2.7665307605719867  2.797481418423363  2.14599940708324 
H  3.3852323426329027  2.077777049337038  2.1873270427932265 
C  1.3775151504455287  2.175789126854623  -1.6682769304976357 
C  1.656139594454857  3.5077141613465552  -1.9757655509279786 
H  1.967123440562467  4.097340313011212  -1.3000288575826642 
C  1.475655271118712  3.9700946926662657  -3.278310303819967 
H  1.659747239136725  4.8775296067876095  -3.48594133219683 
C  1.03034962180493  3.1139059891475824  -4.270606626828484 
H  0.8849567589006699  3.4411658508310423  -5.150545021460423 
C  0.7964007956469444  1.7757887262622702  -3.980104927164567 
H  0.5120948686949773  1.182344832177336  -4.665700802643193 
C  0.9791769109525037  1.3056877635979776  -2.685568459321387 
H  0.8325065880480418  0.3872359157261957  -2.491820789606332 
N  1.5395942704167225  -1.456622628720287  1.783848239827903e-16 
P  1.5395942704167225  1.456622628720287  -1.783848239827903e-16 
Br  -1.654629867976521  1.654629867976521  0.0 
C  -1.3788582233137676  -1.3788582233137676  0.0 
C  -2.618821778986925  -1.1522995256591737  0.5874691967409313 
H  -2.8106553971707884  -0.30966242518610043  0.9782000501948407 
C  -3.5854032518711887  -2.161278806785389  0.6049610958635797 
H  -4.421117162155692  -2.007227978208148  1.0287619599160838 
C  -3.3399450833386255  -3.3715361338635086  0.016423527177974573 
H  -3.9908757182151104  -4.061238805801311  0.045080339651694 
C  -2.164680252095028  -3.57422256025893  -0.6007549227026177 
H  -2.0132444416912625  -4.3986257169530365  -1.0474288760065327 
C  -1.1561711193052586  -2.601214672555715  -0.5998012209931929 
H  -0.3196784027493984  -2.7832859823079534  -1.0129111498427692 
