55

Pd  0.0  0.0  0.0 
C  -0.14984  -3.29744  0.02309 
H  -1.2182  -3.4711  -0.01475 
C  0.83608  -4.26451  0.11786 
H  0.67194  -5.33425  0.16929 
C  2.05284  -3.58937  0.15223 
H  3.03605  -4.03038  0.22606 
C  1.755  -2.29885  0.07622 
C  2.60812  -1.11537  0.08142 
H  3.69026  -1.14263  0.15667 
C  1.56445  2.33966  0.00864 
N  0.36747  -2.12987  0.0 
N  1.93767  -0.0192  0.0 
N  2.4588  1.23453  0.01502 
N  2.15021  3.63284  0.01555 
H  3.19002  3.69179  0.02658 
H  1.60131  4.48718  0.00884 
S  0.09486  2.14907  0.0 
S  1.15961  -0.15501  -4.32143 
S  -4.2604  0.21763  -1.30792 
N  0.47195  0.0  -1.87171 
N  -1.83194  0.0  -0.60829 
C  1.56235  -0.09106  -2.69521 
H  2.58885  -0.12476  -2.36153 
C  -0.47552  -0.05358  -4.01601 
H  -1.25024  -0.06628  -4.76933 
C  -0.64387  0.01859  -2.63648 
C  -1.88042  0.08771  -1.95449 
C  -3.13553  0.21829  -2.5392 
H  -3.3609  0.3084  -3.59324 
C  -3.09365  0.04449  -0.1131 
H  -3.34461  -0.04319  0.91334 
C  -1.17547  -0.11925  5.48869 
H  -2.08  -0.32249  6.05158 
N  0.0  0.0  1.91 
H  -0.89864  -0.40013  1.6082 
H  0.83601  -0.54547  1.77353 
C  -0.00721  0.09395  3.33838 
C  1.19216  0.35641  4.05445 
C  1.18113  0.38989  5.45669 
H  2.0979  0.59767  5.99593 
C  -1.19609  -0.17953  4.09507 
C  -0.01309  0.23516  7.66415 
H  -0.51267  1.17887  7.96786 
H  1.01699  0.22219  8.07706 
H  -0.57508  -0.62728  8.08212 
C  -2.48769  -0.56272  3.44321 
H  -2.35105  -1.49718  2.84312 
H  -2.7784  0.29905  2.83373 
H  -3.30653  -0.76123  4.16106 
C  0.00255  0.16964  6.17016 
C  2.49721  0.58998  3.3408 
H  3.32563  0.81691  4.04338 
H  2.38681  1.44393  2.64659 
H  2.79404  -0.32211  2.78089 
