86

Pd  0.0  0.0  0.0 
P  1.4796516397449866  1.5174752139656187  -1.0788349822820083e-15 
N  1.4796516397449773  -1.5174752139656187  5.329070518200751e-15 
C  2.653205657841193  -1.0245508003633381  -0.05584898463812504 
C  4.002606218258693  -1.6115186808286213  0.2657803436996563 
C  4.891566702669652  -1.5322451982090106  -0.9973131057763684 
C  5.248245912039785  -0.00981102021502167  -1.1377515808424121 
C  4.405537728013154  0.6154496438589971  -0.030723921505797502 
C  2.9225590479785537  0.4193351029023218  -0.4220453384870201 
C  4.5800038655917525  -0.4365903073096322  1.1041149868787898 
C  1.1986331079994688  -2.941940038897497  0.22827011926093205 
C  0.7028525540076686  -3.302832585912371  1.4971605407681392 
C  0.31340167189050505  -4.658603013703103  1.6624729345754496 
C  0.4092718188077604  -5.558753538356715  0.6539694899130553 
C  0.9284346678078373  -5.183536141222417  -0.5895556610613528 
C  1.3539682860705686  -3.843352132756578  -0.7951788435595056 
C  0.67509544535574  -2.3614691541717505  2.656780927921097 
C  2.01567558132506  -2.408509902740851  3.3886809258843322 
C  -0.46668978154328533  -2.6088981049345015  3.6142957162975637 
C  1.9456556138897192  -3.539867943518002  -2.1728547934767817 
C  0.9714439337292545  -3.8332578591506477  -3.309750553713393 
C  3.2549853522181484  -4.331983596503708  -2.3594771357186577 
C  1.3968516434381792  2.8691556737997823  -1.3254396799229131 
C  1.867479673757617  2.298500290416612  -2.663126205418872 
C  2.289597428935423  4.0885354092779025  -1.0157030770129014 
C  -0.06307590052688661  3.2505781475727966  -1.4572101351586055 
C  1.6352426982067976  2.2350395075888545  1.7198674446141953 
C  2.9928679800912175  2.908242078278845  2.041984617091306 
C  0.5066772646445574  3.233885519075895  1.9656988655206562 
C  1.4591854924247816  1.0966911780067594  2.7315625769687344 
H  3.9967110945452458  -2.4635138522168307  0.6997002043278358 
H  4.390768079830475  -1.798444455555929  -1.7669904633427351 
H  5.691428173039757  -2.0306267421313065  -0.8743491480690386 
H  4.960750436986139  0.3199559838154862  -1.9763883644838396 
H  6.175131687211744  0.12012306911005588  -0.9382970942667832 
H  4.651143256661543  1.4976428867400844  0.22508738886240198 
H  2.9173178267550846  0.4451886091994499  -1.3721994395739163 
H  5.512655573117732  -0.609037199747593  1.2234107191470516 
H  4.009937222070634  -0.2601028348716987  1.80251754559192 
H  -0.012968317293752252  -4.93267483126718  2.512720403831883 
H  0.11782071894121571  -6.452812164496975  0.7912600191230879 
H  0.9892270264067324  -5.823371013689732  -1.2944535721880124 
H  0.5735596775634414  -1.514195638158244  2.3252907969655396 
H  1.9974861251319116  -1.8326926755740685  4.125613564991458 
H  2.7032328292417276  -2.140209899384605  2.7794430421014127 
H  2.2057061200711665  -3.303803586945158  3.6790353185973674 
H  -0.45583855990458844  -1.9347371396779178  4.29189734993883 
H  -0.3802180824029031  -3.4623663613388147  4.037221939837757 
H  -1.2915884099455572  -2.5712053113563296  3.1504319257594817 
H  2.1599945646819814  -2.61522212585538  -2.207159546096452 
H  1.369032893127312  -3.574593874798486  -4.131505445736471 
H  0.17122161267489733  -3.373035884140632  -3.168328700365721 
H  0.8090032151904367  -4.778092296513975  -3.3316861169138434 
H  3.5383602344078717  -4.2965575615311105  -3.260035152833668 
H  3.115938155588367  -5.24616137827763  -2.1080604488812416 
H  3.9360453874944206  -3.9654980322705637  -1.797162117638757 
H  1.7250100137333577  2.942024251146109  -3.337166588437268 
H  1.3673538872787518  1.5124833070597927  -2.8533471547739433 
H  2.7884805320174495  2.085279012057511  -2.6022686213427972 
H  2.3275796106181987  4.649805851893048  -1.793594466681937 
H  3.1711722805125397  3.7962337222929508  -0.8117011288541918 
H  1.9284241552952262  4.5711845875046775  -0.2971602618897797 
H  -0.16535072268568984  3.8716339521925827  -2.1622951146472245 
H  -0.3601718642731071  3.6325464325672288  -0.6418359403350737 
H  -0.578266944485992  2.4690474615454794  -1.6464713171849394 
H  2.893946961292084  3.4632349092978876  2.8155955784647957 
H  3.2683185671667934  3.4463551113517523  1.309931102847431 
H  3.647272569603097  2.2450995928274824  2.218556577535713 
H  0.42285210084139546  3.391198655266213  2.910166127576539 
H  -0.3159742324185062  2.8786010010566008  1.6470126316859777 
H  0.6909396050332067  4.0542125653061225  1.5348637843844106 
H  1.721489612413211  1.4072288300640405  3.5978609408664646 
H  1.984979382198929  0.3601794381680059  2.485055939013737 
H  0.5381573548036339  0.847739022793133  2.764974163650836 
Br  -1.654629867976521  1.654629867976521  0.0 
C  -1.352040782177733  -1.3199206589279684  -0.4819701001757076 
C  -1.6380700204479186  -1.599217458033982  -1.8139382277462257 
H  -1.1579680913617836  -1.159339363685303  -2.503515938957912 
C  -2.63068216563725  -2.52632649780156  -2.142289956238523 
H  -2.8368222554424674  -2.694399528648736  -3.0538898079700485 
C  -3.3101544432602585  -3.1961573187854975  -1.1619874135498987 
H  -3.9960123560788676  -3.811990145619169  -1.3868663427944008 
C  -2.9974710358883443  -2.9701089012107795  0.12423560353005347 
H  -3.438659168087169  -3.468581175155742  0.8017084178296768 
C  -2.0389854250767776  -2.015940632791841  0.4912562833419403 
H  -1.8619130127668426  -1.8492165108145995  1.4101568590026907 
