45

Ni  0.0  0.0  0.0 
P  1.3792073275979975  1.4757666304331454  2.0173029004700823e-15 
N  1.3792073275979948  -1.4757666304331458  1.1102230246251565e-15 
H  1.4090622586531905  -1.8630570313769912  0.812673789677298 
H  1.2325009186285505  -2.126744434232676  -0.6034598151721766 
C  2.7086461622868345  -0.8711260411970932  -0.2775967447026537 
H  2.8068126490773557  -0.706831328198443  -1.2288491392604362 
H  3.4129543512210994  -1.476334823250835  0.002039867930898165 
C  2.8095781811229346  0.44246554233873003  0.49283568532448957 
H  3.6407179957759075  0.8945939386856261  0.2787393945686365 
H  2.788862961283228  0.27328355255033165  1.4486175139853252 
C  2.040086157048208  2.29824541533679  -1.5125909794680081 
C  3.1555152281808816  3.1409715275507386  -1.4454212164426283 
H  3.539946915726966  3.329584252123798  -0.6186774666993293 
C  3.6951257632928636  3.6985285985887897  -2.5902207110842204 
H  4.4428175540608565  4.247369379574787  -2.530327947374186 
C  3.1332668329631863  3.446152204977908  -3.801510502321964 
H  3.4948955980031684  3.8284723620845904  -4.569282261222759 
C  2.031527055685518  2.629145260833819  -3.8938128662383216 
H  1.651039603581624  2.448324269562537  -4.7241499290671465 
C  1.4888704240021466  2.075292982875683  -2.7436527929047534 
H  0.7334903427564212  1.5396975820174794  -2.8099852844662294 
C  1.3417860187416721  2.8653838488398895  1.1840600035264266 
C  1.6289734575971866  2.7049311457383833  2.5229275305921295 
H  1.9467330298355787  1.8846977531153781  2.8268222095140096 
C  1.4549268658997199  3.7341187209813684  3.425630493301335 
H  1.6875422310244663  3.61201986653911  4.31764796602921 
C  0.9453019049885729  4.936352785915645  3.0181865556511056 
H  0.8090143501107617  5.621424855679999  3.6319234061124632 
C  0.6318229325587149  5.123698911175878  1.692951677150589 
H  0.2712765846633587  5.933662143403976  1.413167486285664 
C  0.8532033756993685  4.100508320698297  0.7662020373054954 
H  0.6744776164058998  4.2463593892624525  -0.13447757763185333 
Br  -1.5839191898578664  1.5839191898578664  0.0 
C  -1.2937473829822488  -1.2398794889499034  -0.4598005675376139 
C  -1.601562203225019  -1.4938654694550033  -1.7919791134336869 
H  -1.1309417375171225  -1.0428217585005106  -2.480879663633267 
C  -2.60218398542082  -2.411889969420291  -2.121542410022959 
H  -2.8231586547736818  -2.5626138747145775  -3.03270050271447 
C  -3.2683208079706407  -3.09759503004543  -1.143064365570095 
H  -3.9596020908062854  -3.707191723557817  -1.3683280760515548 
C  -2.9347449854640226  -2.896087320001541  0.14198826503765638 
H  -3.3668350933519986  -3.405606940434718  0.8171022443470677 
C  -1.9675509241539992  -1.9516175659140573  0.5112421903797603 
H  -1.7755298364628027  -1.8022912010877177  1.4301324877763764 
