60

Fe  0.0  0.0  0.0 
N  1.6987607739790103  -0.5342179239131507  -0.021307541157021177 
C  2.62930006383505  0.3924519618196063  0.2747955707993694 
O  3.8267804578419335  0.23657710481227306  0.5444675102407251 
C  1.9878958293204523  1.7634880316499195  0.2704202798383418 
C  2.6715829688649446  2.9337803823460638  0.5471695691302262 
C  1.9532831579196495  4.132844797893569  0.5427730974003017 
C  0.597662810926248  4.128222326210136  0.24920988857973284 
C  -0.05094058809093749  2.9131138135735064  0.004331789719598971 
C  -1.5412270198850635  2.930705878840369  -0.3933094184693656 
O  -2.158979583075878  4.057275397659198  0.23205136535025664 
C  -2.262106299795342  3.9716825911408025  1.674626909913165 
C  -1.6356483309843408  3.251631228483087  -1.9117686954890014 
C  -1.0206978701560554  2.209109453096938  -2.8383555821719466 
C  -2.392980594123502  1.6793028367404075  -0.10940129073257966 
C  -3.788572677152334  1.8070952814163368  -0.053710637378574205 
C  -4.573965724407821  0.6845629196767026  0.11664803768664933 
C  -3.9792676622657503  -0.5716492350546146  0.2177816977102367 
C  -2.607937002257115  -0.6508297686756284  0.13401586926106926 
C  -1.8328567734886914  -1.953154514242959  0.19302871578855596 
O  -2.3981766547040047  -3.0363606551044904  0.3799958206561573 
N  -0.5161480245216338  -1.6958392720492201  0.02135811105849468 
C  1.822151066236424  -1.939762037590643  -0.010979894610780317 
C  0.5654866212329765  -2.5977374003122584  0.04324302227438388 
C  0.5049585525223013  -3.990800754116121  0.10887841811300404 
C  1.6994105584001802  -4.716090832659514  0.09939487337326691 
C  2.9267169068976764  -4.07138225828795  -0.0006576681713048325 
C  2.9972578605522915  -2.678831947537772  -0.06146306174031017 
N  0.6495245191758547  1.7695793195122103  0.01899038425308639 
N  -1.8321372686332311  0.46047787645016075  -0.01904095415455989 
H  3.6517637566505186  2.9219598218749914  0.7461545876773547 
H  2.416927557251689  4.99483168821745  0.7498078574716429 
H  0.08727286790326017  4.987214643006613  0.2142318133666701 
H  -2.105018200733545  4.88979290237675  2.041990102864476 
H  -1.5860221797801137  3.3406998573368942  2.0554644504794535 
H  -3.1809754046424397  3.6670472360039486  1.9227509284162843 
H  -1.1700165604541297  4.1224053844608095  -2.0725517902290456 
H  -2.603328126840843  3.342232043015801  -2.148127057086657 
H  -0.10421097798467449  2.0353510497162306  -2.6697021098310803 
H  -1.4297151877430614  1.3452400164034453  -2.661850255734474 
H  -1.1817330643546526  2.509090138519691  -3.7835829064716173 
H  -4.170231638458518  2.7028896757056864  -0.17495522659583576 
H  -5.560317105069666  0.776593119881642  0.16160419540404214 
H  -4.53356430953093  -1.39299729456032  0.34595174872370155 
H  -0.3021722142370725  -4.440307944158678  0.15092828672718625 
H  1.6707308267806926  -5.747312391311022  0.1627480103641774 
H  3.750391890535071  -4.614090684727312  -0.10484512039876116 
H  3.8823869242117186  -2.2188478531116633  -0.14008286548198653 
F  -0.601407464880733  -1.295884146195834  1.9678307083133761 
F  0.8139250229805003  1.704192341949659  3.198759810285195 
F  1.0909855748623263  -0.2989755247099039  5.1146278116291075 
F  -0.717241217161749  -1.2430980919840193  4.4684365577653145 
F  -0.733865092055132  0.7761644847885592  5.173372031996324 
C  0.0  0.0  1.91 
C  0.19769111597247813  0.42440173897535416  3.1256786609216483 
C  -0.05008793971768721  -0.06680080282381515  4.479159053277343 
O  0.0  0.0  -1.79 
O  -0.8112073337885555  0.7050202838235761  -3.663244896164137 
O  0.8139271299138487  -0.7070917955016356  -3.685670780996659 
N  -0.0027197961252935707  0.002071511678058663  -3.0855846022349924 
