60

Pd  0.0  0.0  0.0 
O  0.17695940453300862  -2.1038216136249988  -7.430650605018922e-15 
C  1.2082801134076546  -2.8451050975199177  0.27465081822362636 
C  1.1409294438703808  -4.216223323544841  0.5922485788818986 
H  0.30738335416649215  -4.6246889236491295  0.6481254960373818 
C  2.2503012282688424  -4.9561138242721325  0.8188082419159303 
H  2.134781318491369  -5.85639538538816  1.0180852128872253 
C  3.5142957170591194  -4.478556100494418  0.7731950555763086 
H  4.251687331870186  -5.024300340412459  0.9301202957469363 
C  3.64748471722191  -3.1630895856028056  0.4861174729709227 
H  4.50367177343892  -2.8086313407431023  0.4026789481911236 
C  2.5131361434849717  -2.282754734244545  0.3059873734733531 
C  2.776592111765126  -0.8749737445783781  0.04864352195923651 
H  3.659340933260281  -0.6163765810081296  -0.0869157829310455 
N  1.8908577663946509  0.014236656396858054  3.0236142545348543e-15 
N  2.4245589337061766  1.3084635350524885  -0.14374272355712012 
C  1.562154863835858  2.338853465066563  -0.09016154778895201 
O  0.3321828290723407  2.08958495722814  4.379280774868439e-15 
C  2.0500081230069567  3.681366260169433  -0.19352693126531942 
C  1.1222458710240117  4.688031791542484  -0.06879970191682487 
H  0.21909215246598224  4.483496275506056  0.015714931931494293 
C  1.538818170223594  6.002044129256015  -0.06919451350909576 
H  0.924158709032649  6.687894794555667  0.05884392476817028 
C  2.860838816509231  6.289878146200927  -0.26164151786059364 
H  3.122259559265671  7.182826751063231  -0.29134276920014535 
C  3.7953146560827236  5.341795249206986  -0.4047345494204655 
H  4.68779607737094  5.564745788739266  -0.539590508049046 
C  3.3974270399466153  4.038290413869857  -0.34937897898493003 
H  4.038253613863419  3.3668255134926146  -0.41582624923309214 
C  1.5330646378742259  0.06350955846920976  -2.8246909034804872 
H  2.4421031556500825  0.07562052845994846  -2.6287509698126024 
C  1.0022466559998955  0.10380536705659424  -4.067048218398045 
H  1.470241105208583  0.13463718736419306  -4.869564993528873 
C  -0.5938543166863481  0.032813893436892234  -2.598270350351494 
C  -1.8547450488599453  -0.014054592352096334  -1.9091810843208883 
C  -3.2115225552506375  -0.11122152009603013  -0.26035068482398926 
H  -3.552764486316843  -0.1341512491103661  0.6049773639584088 
C  -3.955825386769368  -0.18351111170041992  -1.3925880803991941 
H  -4.880828809824437  -0.2591758848349814  -1.4495383169475289 
N  0.5253257639975343  -6.912524489137136e-17  -1.9009850963857444 
N  -1.8853257639974343  1.0831394246409767e-16  -0.5790149036143103 
N  -0.3450493026767949  0.09054768456880212  -3.9168895237162986 
H  -0.9293434177743773  0.11516802744834957  -4.545850846675703 
N  -3.0810992597396876  -0.12330049753146871  -2.418260627868931 
H  -3.280948884477603  -0.1503260603174298  -3.2529846400120053 
N  0.0  0.0  1.91 
N  0.8933389644186569  -0.7371552887905777  2.6440095332211175 
H  1.5099320144974044  -1.2530758232952273  2.2871049624027764 
C  -0.7663416793182811  0.6215796836170676  2.815783703460237 
C  0.7227974541929736  -0.5849030545249028  3.9736319722808124 
C  -0.34240797293756703  0.2686789344414228  4.117570730521722 
H  -0.7222072045876803  0.5659693176153449  4.936163805077258 
C  -1.8954017951770212  1.5255593057956869  2.453865221667929 
H  -1.5634430824911671  2.249783506542984  1.88374906672765 
H  -2.2861956790337774  1.9034115917799712  3.269727465135907 
H  -2.5796062395715005  1.01652320851955  1.9700393646276917 
C  1.6119639267144956  -1.2805207201015756  4.960613966787952 
H  1.7541292634925443  -2.2073773998502064  4.675617875193471 
H  1.1889113768266206  -1.2713385424979888  5.844743842794766 
H  2.4745306529742988  -0.8171347192515566  5.005448963895911 
