51

Ni  0.0  0.0  0.0 
P  1.1237551901993599  1.6784737926163749  1.791650726333122e-17 
N  2.4136518658434745  -0.35174577648883143  -1.4227040582582875 
H  2.6351157885274  -0.20165493437487392  -2.2601396797021 
N  1.1237551901993599  -1.6784737926163757  0.0 
C  2.6351719558922504  0.7013795763024262  -0.45567521638588104 
H  3.314746311850334  1.3231134214125782  -0.8180936079841851 
H  3.0098375205341785  0.29882245984798317  0.3678304136273265 
C  1.8755971843929435  -1.5711523284431366  -1.1014635396120727 
C  2.1289630974090805  -2.6762755082984393  -1.934581515332207 
H  2.6499893587501306  -2.5784126785524037  -2.7231150920092544 
C  1.6096302585458127  -3.8938963099996355  -1.5886273626721348 
H  1.7645312538834421  -4.651408471102887  -2.142277809636728 
C  0.8567636034641016  -4.022215963215232  -0.42925323571191876 
H  0.50333176853495  -4.863662985631029  -0.16462807340454236 
C  0.6403903459587525  -2.901839429323288  0.3161026831220377 
H  0.11982264811650678  -2.9850655277077314  1.1059034671878358 
C  1.7582600437255074  2.766955482373427  1.3003989433690872 
C  1.2591151849053326  2.636616452975187  2.592813260578919 
H  0.591727828470697  1.9887989834482627  2.7840919385514775 
C  1.7453196087964302  3.463816648836292  3.6077358064690443 
H  1.416642204854845  3.369812970796108  4.494769809567693 
C  2.696850737486288  4.41075250329635  3.327700221815558 
H  3.010634868733952  4.984389562293351  4.016789101077476 
C  3.1987691330283186  4.535332848798229  2.0536542211816786 
H  3.8622283737609604  5.1905534306374586  1.8704436182659774 
C  2.745131144666939  3.7166778801924405  1.034582414147194 
H  3.1029257662113556  3.8002832844694163  0.1589235392594932 
C  0.7519849687933391  2.8073096840880787  -1.3755344679800068 
C  0.007831657515379398  3.957539817851779  -1.1062872420035696 
H  -0.195446427115068  4.184686664991823  -0.20612004078851753 
C  -0.434996397551759  4.767706503791092  -2.127262474141741 
H  -0.9407722288386657  5.545814467552728  -1.9270718019895279 
C  -0.14743968729183665  4.453402201084251  -3.4307944621207422 
H  -0.47046293365365477  5.002902037815272  -4.136326036001387 
C  0.6112577860715498  3.338475073099171  -3.714672311194902 
H  0.8271520384588418  3.133174176227344  -4.616858613202323 
C  1.06153941180076  2.5139196072419097  -2.689438288517345 
H  1.5836830797488524  1.7460045640222928  -2.893445804111095 
Br  -1.5839191898578664  1.5839191898578664  0.0 
C  -1.2937473829822488  -1.2398794889499034  -0.459800567 
C  -1.601562203225019  -1.4938654694550033  -1.7919791134 
H  -1.1309417375171225  -1.0428217585005106  -2.480879663 
C  -2.60218398542082  -2.411889969420291  -2.121542410022 
H  -2.8231586547736818  -2.5626138747145775  -3.032700502 
C  -3.2683208079706407  -3.09759503004543  -1.14306436557 
H  -3.9596020908062854  -3.707191723557817  -1.368328076 
C  -2.9347449854640226  -2.896087320001541  0.14198826503 
H  -3.3668350933519986  -3.405606940434718  0.81710224434 
C  -1.9675509241539992  -1.9516175659140573  0.5112421903 
H  -1.7755298364628027  -1.8022912010877177  1.4301324877 
