48

Fe  0.0  0.0  0.0 
O  1.45622  -1.10902  0.0 
N  1.45622  1.10902  0.0 
C  2.28177  -0.00972  0.27723 
C  3.74507  0.09268  -0.00215 
H  4.37762  -0.78913  -0.00952 
C  4.25933  1.32935  -0.09284 
H  5.33728  1.44808  -0.16358 
C  3.36638  2.53693  -0.05861 
H  3.82708  3.52278  -0.09358 
C  2.00504  2.41213  -0.03321 
H  1.37512  3.29423  -0.07122 
O  -1.2417  1.34487  0.0 
C  -2.4629  1.23019  0.66921 
C  -3.20546  -0.05065  0.43274 
H  -4.25815  0.03212  0.56735 
C  -2.67452  -1.25122  0.14934 
C  -3.27403  2.56105  0.35898 
C  -4.80776  2.41201  0.48355 
H  -5.31265  3.39485  0.37211 
H  -5.08929  1.98239  1.4711 
H  -5.21519  1.76288  -0.32633 
C  -3.00523  3.1314  -1.07256 
H  -3.54558  4.09549  -1.20824 
H  -3.3501  2.43688  -1.87094 
H  -1.92908  3.34969  -1.2422 
C  -2.77873  3.56185  1.39104 
H  -3.30506  4.53429  1.29346 
H  -1.68356  3.73456  1.26628 
H  -2.95438  3.1558  2.40625 
C  -3.61284  -2.48832  -0.04931 
C  -3.77251  -2.79588  -1.57204 
H  -4.46237  -3.6488  -1.73616 
H  -2.85691  -3.02551  -2.13529 
H  -4.19559  -1.90415  -2.08537 
C  -5.0762  -2.23391  0.45379 
H  -5.68663  -3.13332  0.35326 
H  -5.58553  -1.44108  -0.12859 
H  -5.05935  -1.9609  1.534 
C  -3.15751  -3.73017  0.77372 
H  -3.8683  -4.57073  0.63044 
H  -3.12231  -3.47243  1.85471 
H  -2.17988  -4.1665  0.54754 
N  -1.2417  -1.34487  0.0 
C  -0.61311  -2.50909  -0.60538 
H  -1.23938  -3.29907  -0.99325 
H  0.07677  -2.99476  0.12057 
H  -0.04844  -2.1828  -1.51019 
