62

Fe  0.0  0.0  0.0 
C  0.42085790977756876  -3.1022216341052173  0.8255804353103432 
C  -0.8772856004324261  -2.6075044064796136  0.5609337999829594 
C  -1.973182763093711  -3.4623269575176696  0.8317515525541965 
H  -2.833443720497107  -3.178899748969223  0.624901697292398 
C  -1.7912117247109522  -4.700736117294191  1.3902851273476098 
H  -2.530057012653979  -5.234358568382489  1.573516839065038 
C  -0.5228085755550038  -5.165986592824695  1.6860623175261498 
H  -0.4071170268687657  -6.005584460344328  2.0688457503168887 
C  0.5626890505132296  -4.377774784951271  1.4099721334754733 
H  1.4144226320305193  -4.691940264556744  1.6124160208615688 
C  1.5900681393413427  -2.3668483279647305  0.39177356618603 
C  2.9290451179805643  -3.042995473005622  0.478897265184834 
C  3.287915958554125  -4.075029879872621  -0.3815409678271061 
H  2.6923840227781994  -4.367956865022588  -1.0332629828319173 
C  4.529045215740155  -4.662455641539766  -0.26392399844502573 
H  4.769935909060053  -5.35078959007853  -0.840861931988049 
C  5.412272201957274  -4.240273025188587  0.6994551996222246 
H  6.244618781594912  -4.649381812242958  0.7744000574873747 
C  5.076291643786639  -3.2205814702586104  1.550827067454274 
H  5.678978970732627  -2.9281576893142662  2.196645933915229 
C  3.8300164016131806  -2.6295219856983088  1.4416276331297326 
H  3.5957109590216514  -1.9445071531742972  2.025866795454623 
C  2.6700779985942122  -0.5754170214300643  -0.7957796022591118 
H  2.366976889058629  -0.1931013091678546  -1.6347250972441787 
H  3.302867965168106  -1.2801397184418024  -1.0008652149185888 
C  3.3641151858817113  0.4934158210242713  0.011795600154287761 
H  4.004149686438127  0.07697958771687359  0.6116127403614049 
H  3.8542069521101  1.0800934753512417  -0.5866003812731794 
C  2.3888737918317138  1.310877903537921  0.8183763505964649 
H  2.198710464303085  0.853254940748951  1.6533603880435785 
H  2.7878792730659363  2.169690460649209  1.0306854594284152 
C  0.8593947925183838  2.695345920141556  -0.4409839043191373 
C  1.9361641055027319  3.7417620358845127  -0.49065491526752075 
C  2.9098401236708464  3.659046626511861  -1.4658623715026533 
H  2.893102306895645  2.9616382107881596  -2.081756881274705 
C  3.907455019331748  4.613170413984771  -1.5262969488060631 
H  4.558663459636279  4.55283516486645  -2.187619952330035 
C  3.9553310895312612  5.633229143593997  -0.6434555077475546 
H  4.638252346846427  6.262456953744633  -0.6933426728314772 
C  2.989518102386165  5.73894359839843  0.3293820007333159 
H  3.022321958532285  6.439091465344798  0.9411804409343317 
C  1.9566323736238809  4.800177657990917  0.4057072943783545 
H  1.2910542462026853  4.882990352843941  1.0494309648066478 
C  -0.4463730274489923  3.036352210730767  -0.9625539284925301 
C  -1.563056607973603  2.215455549500856  -0.6717699836669639 
C  -2.841220094707032  2.70221764462047  -1.0473797864360161 
H  -3.5969565454563295  2.2019674116866934  -0.8429942647898985 
C  -2.982235068161945  3.898636917798144  -1.707539441391178 
H  -3.8329427160138887  4.190450831279716  -1.945097071840682 
C  -1.8784238380783316  4.678537431840024  -2.0260657457029403 
H  -1.9814766617754171  5.479081012858242  -2.487522905598185 
C  -0.6406567727014993  4.247522434163634  -1.648906663025028 
H  0.09945331424272967  4.7718523056217235  -1.8526009808155568 
N  1.5108065435538285  -1.1558447669967569  -0.07811462770279679 
N  1.1282377844913403  1.524933976543842  0.078117548145454 
O  -1.1435927216742714  -1.4176614994798489  0.0849106137428013 
O  -1.4954516063708976  1.0485722899327632  -0.08491353418545851 
Cl  0.0  0.0  2.15 
S  0.0  0.0  -2.19 
N  -0.006569914896155216  -0.011613671243758089  -4.993138572896192 
C  0.006569914896155563  0.011613671243758325  -3.8333101651418398 
