83

Ni  0.0  0.0  0.0 
N  1.394792696962528  -1.4610452876280045  -3.9432878731026866e-17 
P  1.3947926969625275  1.4610452876280045  2.6516276635976664e-16 
C  2.634640420548883  1.0513278715636154  1.2700790689131631 
C  3.0357397154322023  2.0335856989920242  2.156711081700734 
H  2.806171861603793  2.918746259004231  1.9903210775313251 
C  3.778887350928243  1.7223680975594187  3.2973528337049296 
C  4.028400967864501  0.3834826799993447  3.50997334919766 
H  4.472898609164898  0.15600282512121008  4.294564078497341 
C  3.6719566750257613  -0.6661698482188402  2.650635018789935 
C  2.9996586002222188  -0.30290915089873655  1.4547039737885963 
C  3.940992182976625  -2.106724845262763  3.2042585876103233 
C  3.5643849505925673  -3.2757251763701345  2.2953313691891233 
H  2.640051513631554  -3.2026632761649023  2.046611775963587 
H  3.706268333164456  -4.101893331608953  2.7619225553673847 
H  4.110377317360722  -3.2562100181190923  1.5056104475786056 
C  3.104706456743208  -2.246889265034083  4.487979530622654 
H  2.173870045637421  -2.15079801366163  4.275706340677672 
H  3.3625130724456467  -1.5663195295029488  5.113561982405898 
H  3.256296523491809  -3.112313137043405  4.875565280385896 
C  5.431982086471491  -2.2616733036829237  3.583893613536124 
H  5.586417514839797  -3.147732432693037  3.920324792772744 
H  5.658415633554462  -1.6181055868145866  4.260696873398455 
H  5.977341478048193  -2.114868453199322  2.8076657862240615 
C  4.167554888304525  2.7945818087054186  4.303894647550937 
C  5.6312766786365005  2.6420889312521045  4.702948482056355 
H  6.1881841228228485  2.7816373057799124  3.934510137244923 
H  5.778154630284235  1.759237016309673  5.049156589416972 
H  5.848386792894391  3.2903732678298763  5.376988211771772 
C  3.331346185204901  2.5774514139898455  5.569773427905183 
H  2.399481128738245  2.675003150549217  5.358458815938453 
H  3.578508002055907  3.2259707911942868  6.232086694933191 
H  3.4907580422636544  1.6937729504043102  5.911506266280748 
C  3.9046735039404163  4.207334809915288  3.804043244304591 
H  4.420418917053696  4.366536329518849  3.0100208988957724 
H  4.157197688984188  4.839166398447841  4.48186724041303 
H  2.97167969216132  4.307702800724164  3.6036049655180653 
C  2.7082543110963915  -1.2537969206101738  0.33348672022339226 
C  3.7304336134574845  -1.8200243893993786  -0.4269137778124623 
C  3.3673075205267926  -2.744431162712126  -1.418085694326654 
H  4.028132374143087  -3.166910346093306  -1.9182755607300113 
C  2.046937892368753  -3.031023579487788  -1.6565306810311908 
H  1.8124150616174255  -3.6774943412075873  -2.2836991162205025 
C  1.086345931634741  -2.363452640202616  -0.9693940235931563 
H  0.19290959463636548  -2.5277770331786726  -1.1674747283677336 
C  5.185268510165702  -1.4727149361627738  -0.23435891027457428 
H  5.269713939450633  -0.8301966528835129  0.474572422877494 
H  5.53602349002618  -1.10033732774293  -1.0466449380077998 
H  5.6759885658123315  -2.2666879463240797  -0.006894130316079827 
C  0.9589266224328836  3.193424558437053  0.31540899978478115 
C  1.3908157706942141  4.2268565867154475  -0.5144258371210478 
H  1.8647968921190528  4.031448478960275  -1.2897627303206525 
C  1.1172305116970267  5.545996627288039  -0.18578976268979272 
H  1.4031075501733805  6.233349845223122  -0.7425239206739066 
C  0.4243732605755728  5.834124023861378  0.9544928570638976 
H  0.23756102626287134  6.720183474558984  1.1677877209039558 
C  -0.001870979234008141  4.827394696266091  1.7960614395268613 
H  -0.4598517486049214  5.03342683472821  2.578849420277184 
C  0.25515426282229003  3.514638810982173  1.4676670263613154 
H  -0.04636516857176587  2.8343771254504544  2.0244767619886224 
C  2.19580199321239  1.464232536537695  -1.6277344865689098 
C  1.3963085176678198  1.4841307493078122  -2.754389098102668 
H  0.47339118715458917  1.409836580660771  -2.669522864868279 
C  1.969605062068998  1.6139630218638277  -4.009653987749717 
H  1.4292401101385792  1.6384670261566197  -4.766912815693539 
C  3.314298564326217  1.7063113433994657  -4.135445134086922 
H  3.690504094640341  1.8232069396183033  -4.977945412155554 
C  4.134754721000025  1.6288685830975624  -3.0302847322207933 
H  5.059886978486042  1.6451340850647078  -3.1294550887019232 
C  3.5642887733972466  1.525836756312515  -1.7593925002455464 
H  4.106796773499741  1.4994410892332202  -1.005214087279329 
Br  -1.5839191898578664  1.5839191898578664  0.0 
C  -1.2937473829822488  -1.2398794889499034  -0.4598005675376139 
C  -1.601562203225019  -1.4938654694550033  -1.7919791134336869 
H  -1.1309417375171225  -1.0428217585005106  -2.480879663633267 
C  -2.60218398542082  -2.411889969420291  -2.121542410022959 
H  -2.8231586547736818  -2.5626138747145775  -3.03270050271447 
C  -3.2683208079706407  -3.09759503004543  -1.143064365570095 
H  -3.9596020908062854  -3.707191723557817  -1.3683280760515548 
C  -2.9347449854640226  -2.896087320001541  0.14198826503765638 
H  -3.3668350933519986  -3.405606940434718  0.8171022443470677 
C  -1.9675509241539992  -1.9516175659140573  0.5112421903797603 
H  -1.7755298364628027  -1.8022912010877177  1.4301324877763764 
