46

Ni  0.0  0.0  0.0 
P  1.3928906821786122  -1.462858690202167  -1.082998238239013e-15 
N  1.392890682178612  1.4628586902021674  -2.9017082371861304e-16 
N  2.7364252456398033  -0.44511137464002926  0.19646849226088137 
H  3.5271834539312863  -0.8041556647808716  0.34087158688466257 
C  2.6240353707968973  0.9394775016239396  0.1360741236585037 
C  3.778045168609232  1.7462404158442448  0.2383770404888329 
H  4.638468514422966  1.353250666492208  0.3309269345079513 
C  3.631282407603326  3.114331328113713  0.20106474026995752 
H  4.392185674021709  3.678537304075708  0.2776181584995799 
C  2.354783861086167  3.6710997094038014  0.0503341185129323 
H  2.2326761117918905  4.612051822016791  0.011979596857209633 
C  1.2776791677027346  2.810360901593193  -0.04083426537198796 
H  0.4100717973808947  3.185077317246604  -0.13733954400014906 
C  1.5889347350148428  -2.70306298823267  1.3443147096175962 
H  2.4987200252106625  -3.1122734396654543  1.2745387669044557 
C  1.4712617375789145  -1.9946049417095488  2.6948446655945646 
H  0.605640388047076  -1.5395286452369217  2.750094404267791 
H  2.1925893712555293  -1.3375236655494016  2.78241116269402 
H  1.5407136610684413  -2.653486237938369  3.4169598972601687 
C  0.5364766074653435  -3.8132851859594723  1.2094771724489535 
H  0.6311836993103357  -4.4449635026616106  1.9527476487647024 
H  0.6667634710307266  -4.2855959290460195  0.36046183386704955 
H  -0.3598682711862644  -3.417482666633438  1.22911168823642 
C  1.7126628315660053  -2.3564882928122026  -1.5855345678398913 
H  0.8878887553658718  -2.8762841385031592  -1.807330920448897 
C  1.916569448246893  -1.3210373465621137  -2.7007335274805504 
H  2.744743133055721  -0.8232396543603048  -2.5370992235319685 
H  1.1592246537724522  -0.6995979648304679  -2.712301462277796 
H  1.975847719124632  -1.77962363004469  -3.5651744608030143 
C  2.8793237047875673  -3.3486021516015487  -1.5341824686415975 
H  3.0125067460731514  -3.743227188774634  -2.421897720031422 
H  2.677742359009782  -4.057293053835397  -0.8885990610749127 
H  3.6946195800952166  -2.879250504994374  -1.2596338981964137 
Br  -1.5839191898578664  1.5839191898578664  0.0 
C  -1.29374738  -1.23987949  -0.45980057 
C  -1.6015622  -1.49386547  -1.79197911 
H  -1.13094174  -1.04282176  -2.48087966 
C  -2.60218399  -2.41188997  -2.12154241 
H  -2.82315865  -2.56261387  -3.0327005 
C  -3.26832081  -3.09759503  -1.14306437 
H  -3.95960209  -3.70719172  -1.36832808 
C  -2.93474499  -2.89608732  0.14198827 
H  -3.36683509  -3.40560694  0.81710224 
C  -1.96755092  -1.95161757  0.51124219 
H  -1.77552984  -1.8022912  1.43013249 
