98

Fe  0.0  0.0  0.0 
S  0.48718  -2.29548  -0.57747 
S  -1.73142  0.00096  -0.34776 
S  2.87575  0.01575  -0.34671 
S  0.67818  2.31065  -0.57755 
N  0.56606  -0.01613  1.50278 
C  -1.26339  -2.75391  -0.36923 
C  -1.68799  -4.11721  -0.30125 
C  -3.07475  -4.34446  -0.12284 
H  -3.45845  -5.34183  -0.06132 
C  -4.02012  -3.31131  -0.00444 
C  -3.57127  -1.99116  -0.09024 
H  -4.23987  -1.1475  -0.00439 
C  -2.23145  -1.71346  -0.27534 
C  -1.87914  0.50731  1.41875 
H  -1.89206  1.61853  1.44468 
H  -2.8443  0.16483  1.84525 
C  2.40931  2.77568  -0.36882 
C  2.85588  4.13216  -0.37541 
C  4.24647  4.35517  -0.22462 
H  4.64602  5.35077  -0.22202 
C  5.17902  3.31566  -0.10021 
C  4.70375  2.0042  -0.10856 
H  5.37217  1.15645  -0.0323 
C  3.34929  1.73682  -0.24175 
C  3.06583  -0.49126  1.38383 
H  3.32024  -1.57391  1.42013 
H  3.91922  0.05241  1.8356 
C  -0.6851  -0.03658  2.22267 
C  -0.59535  0.10406  3.70562 
H  -1.48924  0.30526  4.28939 
C  0.58625  -0.09225  4.30303 
H  0.64469  -0.04561  5.38695 
C  1.81887  -0.34584  3.50594 
H  2.74395  -0.54496  4.03779 
C  1.80427  -0.28002  2.15315 
C  -0.71134  -5.33579  -0.40302 
C  0.31157  -5.31506  0.75795 
H  0.98495  -6.19699  0.69833 
H  -0.21808  -5.34552  1.73459 
H  0.96813  -4.43191  0.764 
C  0.0115  -5.34614  -1.77175 
H  0.67417  -6.23469  -1.85362 
H  0.65362  -4.4694  -1.94663 
H  -0.73237  -5.38876  -2.59658 
C  -1.44196  -6.70195  -0.30026 
H  -0.72469  -7.5475  -0.36579 
H  -2.17116  -6.82564  -1.13148 
H  -1.9691  -6.79898  0.67451 
C  -5.49756  -3.66961  0.22506 
C  -5.62104  -4.48072  1.53454 
H  -6.67841  -4.75912  1.726 
H  -5.24842  -3.88231  2.3946 
H  -5.03504  -5.42214  1.49789 
C  -6.39883  -2.4194  0.35479 
H  -6.35617  -1.80706  -0.5727 
H  -6.08222  -1.79533  1.21873 
H  -7.45673  -2.71269  0.51815 
C  -6.01148  -4.50766  -0.96429 
H  -5.91681  -3.93177  -1.91051 
H  -7.07838  -4.77748  -0.81784 
H  -5.44455  -5.45435  -1.08064 
C  1.89343  5.34846  -0.57268 
C  0.87166  5.42042  0.58258 
H  0.19239  6.28641  0.44884 
H  1.41155  5.53519  1.54779 
H  0.22999  4.52866  0.66556 
C  2.63805  6.71251  -0.57454 
H  3.3761  6.76107  -1.40789 
H  3.1525  6.88508  0.39333 
H  1.9292  7.55239  -0.71672 
C  1.18202  5.25703  -1.94535 
H  1.93168  5.20518  -2.76576 
H  0.54402  6.14983  -2.11672 
H  0.5126  4.38975  -2.05537 
C  6.68435  3.65225  0.02513 
C  6.90799  4.46371  1.3249 
H  7.97847  4.73768  1.43289 
H  6.60733  3.85657  2.20795 
H  6.31362  5.39872  1.33146 
C  7.13098  4.48952  -1.19523 
H  6.95776  3.91595  -2.13329 
H  8.21224  4.73483  -1.12821 
H  6.58009  5.44717  -1.27273 
C  7.5801  2.39972  0.08787 
H  7.45974  1.7843  -0.83263 
H  7.33868  1.77133  0.97512 
H  8.65367  2.67752  0.15752 
S  0.0  0.0  -2.19 
O  -1.41198  0.83754  -1.81413 
C  -1.00448  -1.05385  -3.3041 
H  -1.49368  -0.40452  -4.06419 
H  -1.78215  -1.63822  -2.78816 
H  -0.33219  -1.76135  -3.82751 
C  1.07844  0.99107  -3.2859 
H  0.50241  1.58054  -4.02061 
H  1.65449  0.22755  -3.86123 
H  1.86537  1.56875  -2.77497 
