51

Ni  0.0  0.0  0.0 
P  1.3547405563428008  -1.498258330529151  1.834837268778382e-16 
N  1.3547405563428008  1.4982583305291506  -1.8348372687783814e-16 
N  2.6475803754044027  0.8711426850795697  -0.10205101411133771 
C  1.244721251599624  2.5069000708799463  -1.0935965216687442 
H  1.9172038615845168  3.2085083306709943  -0.9604492007760818 
H  0.34968509506226875  2.9066884103103385  -1.0829973638554244 
H  1.396599206839392  2.0696377499231713  -1.957707769936983 
C  1.2535028232462415  2.1645154302960856  1.3304574921460963 
H  1.3775200890679984  1.4994915591135352  2.039170035096675 
H  0.3710706899053531  2.57965688976678  1.4220044127715585 
H  1.9478912445225638  2.853374380031066  1.4049151161170728 
C  1.5464979006703385  -2.950358879992887  -1.0312598775980697 
C  1.6354508894521111  -4.01703274553086  -0.20634484538864234 
C  1.5363817705517575  -3.7027196458441853  1.2553566101232911 
C  1.3798988027625618  -2.403754133459784  1.555474867528288 
C  2.818786227228573  -0.49659463247384483  -0.13532737919151588 
C  4.1693944569646435  -0.7223139981593079  -0.23386451799606048 
H  4.593103881659012  -1.5716931766822477  -0.27402749244854535 
C  4.811296010308606  0.519532709506169  -0.2639484086193096 
H  5.748412976463834  0.6609150170052949  -0.33417571719882205 
C  3.8613265580613465  1.4909432835998744  -0.174299558453866 
H  4.014810315026349  2.427652879270428  -0.16253181752310816 
C  1.5757650955084421  -2.8706427572346604  -2.52183196276495 
H  1.652615708224549  -3.7725700700784617  -2.8964240150985807 
H  2.3440365145250937  -2.332192929483608  -2.804541636665614 
H  0.7487683248359948  -2.453328004324741  -2.8422190385047443 
C  1.8395303684160684  -5.429629543342438  -0.637867756806195 
H  1.8948974284934583  -5.468736581031532  -1.6152182099506067 
H  1.0869067449168137  -5.976719953786214  -0.330848890689917 
H  2.6711146986479446  -5.772689004135472  -0.24945152636105575 
C  1.6650981495460941  -4.795025933520229  2.276377358042739 
H  1.5342849251823403  -4.422007747262175  3.1731621165284896 
H  2.5570615719677083  -5.196271091147804  2.216513040270334 
H  0.9876919321855623  -5.482026021573448  2.1070259019043864 
C  1.2747859884944746  -1.7275026190482712  2.8795452302858173 
H  1.1127218539822672  -2.3975697460205834  3.5763000161724134 
H  0.5330379891205181  -1.0884576723321402  2.862458349314759 
H  2.1098237891272893  -1.253578910077989  3.0711228114120854 
Br  -1.5839191898578664  1.5839191898578664  0.0 
C  -1.2937473829822488  -1.2398794889499034  -0.4598005675376139 
C  -1.601562203225019  -1.4938654694550033  -1.7919791134336869 
H  -1.1309417375171225  -1.0428217585005106  -2.480879663633267 
C  -2.60218398542082  -2.411889969420291  -2.121542410022959 
H  -2.8231586547736818  -2.5626138747145775  -3.03270050271447 
C  -3.2683208079706407  -3.09759503004543  -1.143064365570095 
H  -3.9596020908062854  -3.707191723557817  -1.3683280760515548 
C  -2.9347449854640226  -2.896087320001541  0.14198826503765638 
H  -3.3668350933519986  -3.405606940434718  0.8171022443470677 
C  -1.9675509241539992  -1.9516175659140573  0.5112421903797603 
H  -1.7755298364628027  -1.8022912010877177  1.4301324877763764 
