50

Ni  0.0  0.0  0.0 
P  1.4109171476383726  -1.445480128711564  -5.45454205105122e-15 
N  2.8068489441979727  -0.46314373625926675  -0.18395081249545792 
C  4.193899727530319  -0.668220498721734  -0.2986806950677988 
H  4.620461466289198  -1.5149516060465773  -0.3535942172226277 
C  4.829828797559631  0.5332372076169904  -0.3194346771184822 
H  5.768458552201881  0.6651142125052667  -0.37722740401307986 
C  3.8384893277964625  1.561086591699715  -0.23836366299830222 
C  3.781079011847194  2.9571923630040855  -0.22982077395351908 
H  4.569317637879383  3.4816841702181875  -0.3057213839391635 
C  2.5372178514978385  3.550909950643956  -0.10760952282878232 
H  2.4769663163441895  4.499689510292723  -0.1090058409595112 
C  1.38623306518441  2.8054969189474113  0.015988631898662505 
H  0.55394992621879  3.251435989430907  0.11455623311663164 
N  1.4109171476383717  1.445480128711564  2.670689485642905e-16 
C  2.6090807019930238  0.8942529902864789  -0.13590396933108714 
C  1.676857266007879  -2.4405052324340386  1.4888869622653509 
C  0.8003815893851329  -2.3119998062366056  2.5726347759778174 
H  0.014203366519743632  -1.786718500102851  2.4874114733038706 
C  1.0780915260637314  -2.944729351827268  3.76128248375613 
H  0.48849476181745033  -2.8429328988167675  4.499211760682307 
C  2.201185380220278  -3.724513845305364  3.886556816669584 
H  2.376004904455649  -4.171751242180709  4.706631267425297 
C  3.084677343536942  -3.8626790687719885  2.821644077625054 
H  3.8681733035309858  -4.391161598435621  2.9135170144093085 
C  2.8110683822862392  -3.2259710769296124  1.630123398221046 
H  3.405811089889033  -3.3257557554838346  0.8961541756516337 
C  1.454030558239608  -2.5734537601812146  -1.4105414033397023 
C  1.101368545108473  -3.905557662374827  -1.2726187139269514 
H  0.8973752886654792  -4.257708567039095  -0.41419212902296143 
C  1.0466746758833512  -4.725269273392368  -2.39669761926779 
H  0.7958103198329365  -5.6360965333793605  -2.3056754388500607 
C  1.355380099808396  -4.219049315424332  -3.645014071692467 
H  1.3113224474393936  -4.778709862761698  -4.411498758442154 
C  1.730213438713152  -2.887504410884129  -3.772181305044986 
H  1.963860099375199  -2.5425999392852088  -4.625258607188547 
C  1.7663255604061483  -2.064200156220473  -2.6702780974447995 
H  2.0031231171460293  -1.1500921973806864  -2.766752999402681 
Br  -1.5839191898578664  1.5839191898578664  0.0 
C  -1.29374738  -1.23987949  -0.45980057 
C  -1.6015622  -1.49386547  -1.79197911 
H  -1.13094174  -1.04282176  -2.48087966 
C  -2.60218399  -2.41188997  -2.12154241 
H  -2.82315865  -2.56261387  -3.0327005 
C  -3.26832081  -3.09759503  -1.14306437 
H  -3.95960209  -3.70719172  -1.36832808 
C  -2.93474499  -2.89608732  0.14198827 
H  -3.36683509  -3.40560694  0.81710224 
C  -1.96755092  -1.95161757  0.51124219 
H  -1.77552984  -1.8022912  1.43013249 
