50

Ni  0.0  0.0  0.0 
P  1.4109171476383722  1.4454801287115635  5.678718525204032e-15 
N  2.79061676447879  0.4631437362592665  0.280877997276854 
C  4.166285609774542  0.6682204987217335  0.4920841751708436 
H  4.587977691910332  1.5149516060465769  0.5766193734756295 
C  4.799217863946942  -0.5332372076169906  0.5571477710409686 
H  5.731529746846027  -0.6651142125052668  0.6802752195926601 
C  3.815948475375454  -1.561086591699715  0.4071218961425208 
C  3.7592739298857567  -2.9571923630040855  0.3945950759489294 
H  4.540297887334039  -3.481684170218187  0.5252955428843198 
C  2.526967778737088  -3.5509099506439554  0.18591415691636937 
H  2.4667656110658176  -4.499689510292722  0.1831041390563216 
C  1.3874085049498937  -2.8054969189474113  -0.017671558944541147 
H  0.5640284941667725  -3.251435989430907  -0.1740561913708671 
N  1.4109171476383717  -1.445480128711564  -4.440892098500626e-16 
C  2.596681854125739  -0.894252990286479  0.21915257861281423 
C  1.780068953536868  2.440505232434038  -1.466709063571917 
C  0.9813267535233483  2.3119998062366056  -2.6089567746028535 
H  0.19111874422031727  1.7867185001028507  -2.578782092172425 
C  1.3412760753725028  2.9447293518272675  -3.775336930399839 
H  0.8045908834418183  2.842932898816767  -4.552596839900387 
C  2.4703728250615136  3.7245138453053634  -3.8219630343849222 
H  2.7019719996146145  4.171751242180709  -4.6278450314431065 
C  3.277428088838745  3.862679068771988  -2.698015085308133 
H  4.0654242241551986  4.3911615984356205  -2.7350103088739464 
C  2.9213693442776822  3.2259710769296115  -1.5284828867151756 
H  3.4634641837332603  3.3257557554838337  -0.7548144222153742 
C  1.3555311417711882  2.5734537601812137  1.4101128348693548 
C  1.0133491960420495  3.905557662374826  1.247925659736511 
H  0.8697336684502001  4.257708567039094  0.37736030861193365 
C  0.8803767776867226  4.725269273392367  2.3654511139073806 
H  0.6364729009376907  5.63609653337936  2.2571512460802228 
C  1.1012520568766448  4.21904931542433  3.6322609319928127 
H  1.0038344578079548  4.778709862761696  4.393805194098258 
C  1.4663015828324184  2.8875044108841275  3.78526544432002 
H  1.639871427543446  2.542599939285208  4.652563060180949 
C  1.5791906193814893  2.064200156220472  2.6885654718208087 
H  1.8086816002091635  1.1500921973806855  2.8013235283157303 
Br  -1.5839191898578664  1.5839191898578664  0.0 
C  -1.308147545195113  -1.308147545195113  0.0 
C  -2.5481111008682706  -1.081588847540519  0.5874691967409313 
H  -2.7399447190521347  -0.23895174706744582  0.9782000501948406 
C  -3.514692573752534  -2.090568128666735  0.6049610958635798 
H  -4.3504064840370384  -1.9365173000894942  1.0287619599160838 
C  -3.2692344052199704  -3.300825455744854  0.016423527177974795 
H  -3.920165040096455  -3.990528127682657  0.045080339651694334 
C  -2.0939695739763726  -3.5035118821402764  -0.6007549227026172 
H  -1.9425337635726068  -4.327915038834382  -1.0474288760065322 
C  -1.0854604411866036  -2.53050399443706  -0.5998012209931928 
H  -0.24896772463074335  -2.712575304189299  -1.0129111498427692 
