15

Ru 0.0 0.0 0.0
S 1.689294 1.290847 0.0
N 1.689294 -1.290847 0.0
C 2.526743758557973 -0.20889808413192665 0.056210298561497396
N 3.807939399504287 -0.5856023523102702 0.09185506452759391
C 3.815349031606947 -1.9455982361183206 0.07839683481908737
H 4.647117395353459 -2.5439312995503083 0.0924650135761046
C 2.5207565765104967 -2.382859811206994 0.013647020599023054
H 2.246794648467453 -3.372507412125345 -0.010661624013758182
C 4.91612405079551 0.30012966100080907 0.03620273403910444
H 5.811169299479433 -0.2342676312511834 0.09546171716120173
H 4.877307975419672 1.0026576372029803 0.8248439919990788
H 4.89666283883982 0.8334233844062024 -0.8811019323645526
Cl -1.583919 1.583919 0.0
Cl -1.583919 -1.583919 0.0
15

Ru 0.0 0.0 0.0
S 1.689294 1.290847 0.0
N 1.689294 -1.290847 0.0
C 2.5145014718562515 -0.21094094418953685 0.05672629230289847
N 3.8377590783866986 -0.5815463749905323 0.08159705206734107
C 3.8074896933205973 -1.9745578199376115 0.07642508057305344
H 4.693579313832898 -2.580480388270473 0.0951827718106147
C 2.5298285439647867 -2.405003918394922 0.013906295137106468
H 2.221676549723766 -3.421579605008332 -0.012613430341498769
C 4.910565008056936 0.29479773457744685 0.03577743405258848
H 5.862562309414269 -0.26763590809237037 0.09689318642009391
H 4.87270728987881 1.0260648639200687 0.8638561592628407
H 4.8926252509761365 0.8541383531447476 -0.9173530903298145
Cl -1.583919 1.583919 0.0
Cl -1.583919 -1.583919 0.0
15

Ru 0.0 0.0 0.0
S 1.689294 1.290847 0.0
N 1.689294 -1.290847 0.0
C 2.5145014718562515 -0.21094094418953685 0.05672629230289847
N 3.8377590783866986 -0.5815463749905323 0.08159705206734107
C 3.8074896933205973 -1.9745578199376115 0.07642508057305344
H 4.693579313832898 -2.580480388270473 0.0951827718106147
C 2.5298285439647867 -2.405003918394922 0.013906295137106468
H 2.221676549723766 -3.421579605008332 -0.012613430341498769
C 4.910565008056936 0.29479773457744685 0.03577743405258848
H 5.862562309414269 -0.26763590809237037 0.09689318642009391
H 4.87270728987881 1.0260648639200687 0.8638561592628407
H 4.8926252509761365 0.8541383531447476 -0.9173530903298145
Cl -1.583919 1.583919 0.0
Cl -1.583919 -1.583919 0.0
15

Ru 0.0 0.0 0.0
S 1.689294 1.290847 0.0
N 1.689294 -1.290847 0.0
C 2.5207530455894185 -0.21607493022593344 0.058056300664891224
N 3.8342515126880055 -0.605236554667388 0.07245976910912894
C 3.8332882942356923 -1.9884992802505796 0.07486054649634602
H 4.694691471091848 -2.5877582565210546 0.09538120236341747
C 2.5159782631870238 -2.421376006297645 0.013082713760363051
H 2.2162874321854282 -3.430328065288238 -0.012188453915466432
C 4.9330335700488455 0.302294281431778 0.03466387647685471
H 5.864491621673034 -0.2680688885477612 0.0957090212879406
H 4.870901641350478 1.0243846604177187 0.8691179199804278
H 4.891700908319518 0.8560937825619901 -0.9193983244007518
Cl -1.583919 1.583919 0.0
Cl -1.583919 -1.583919 0.0
15

Ru 0.0 0.0 0.0
S 1.689294 1.290847 0.0
N 1.689294 -1.290847 0.0
C 2.5470204679968727 -0.2335283363323266 0.06140623359252593
N 3.8521936765857547 -0.6069849895700206 0.06704923983145755
C 3.829061388522605 -1.9992222844613003 0.07231406352157702
H 4.70703955750083 -2.6138060503277094 0.09583109576009782
C 2.5203783827579844 -2.423592877787837 0.013068012664041406
H 2.2030836494345163 -3.4493139928459344 -0.011134209370468303
C 4.940668649739315 0.2999691859830007 0.03321852324125083
H 5.885117652129444 -0.2715637745462141 0.08668455670131257
H 4.871016934639397 1.0230974287704822 0.8739126605961325
H 4.892620707214853 0.8609291102835814 -0.9229294205152726
Cl -1.583919 1.583919 0.0
Cl -1.583919 -1.583919 0.0
15

Ru 0.0 0.0 0.0
S 1.689294 1.290847 0.0
N 1.689294 -1.290847 0.0
C 2.547027358204316 -0.22878314732389515 0.062402736501689066
N 3.867271873624713 -0.6102842039942419 0.06550368664510772
C 3.8323959097417255 -2.011023020594561 0.06937759783080547
H 4.708191438078477 -2.616742630498023 0.09552745561661541
C 2.53198400681415 -2.436919733135217 0.012630268659928858
H 2.2008095604717854 -3.450793579038245 -0.010591738092978462
C 4.959696671669661 0.29643745087051737 0.029750675397905435
H 5.887223132089878 -0.2707752714757724 0.08623520507616499
H 4.871720224841313 1.0215610969788365 0.8760209997015868
H 4.893906406758093 0.8624425808261565 -0.9231104865548303
Cl -1.583919 1.583919 0.0
Cl -1.583919 -1.583919 0.0
15

Ru 0.0 0.0 0.0
S 1.689294 1.290847 0.0
N 1.689294 -1.290847 0.0
C 2.543719038665393 -0.2093232163280126 0.0648903055901986
N 3.8713113935499956 -0.6147964592116676 0.06550554283353545
C 3.847551401744552 -2.019843159760608 0.06662521383327412
H 4.713284422428231 -2.628826759627999 0.09407438104656388
C 2.5236704101799865 -2.4418417939827446 0.01158452937048035
H 2.195045879747301 -3.457245841630607 -0.008903618521803262
C 4.961757746550634 0.2987145869132209 0.029898889681218403
H 5.905984643776996 -0.26675848414198544 0.08306271552244036
H 4.874835453329904 1.0170686749454934 0.878595722137641
H 4.8986265036416095 0.8658322376364135 -0.9231251828909938
Cl -1.583919 1.583919 0.0
Cl -1.583919 -1.583919 0.0
15

Ru 0.0 0.0 0.0
S 1.689294 1.290847 0.0
N 1.689294 -1.290847 0.0
C 2.548665067309364 -0.2160527679627957 0.06652124230762746
N 3.8769184705247732 -0.6131910040341824 0.06499238236047447
C 3.847342430798593 -2.0168103295725883 0.06628288536748295
H 4.722366101130852 -2.6427971577976135 0.09194825970724918
C 2.509569863501606 -2.4399331684967023 0.010480054604089134
H 2.188857462814584 -3.4650162468053973 -0.007478926973538835
C 4.980827970864515 0.308336378968358 0.030481421487670968
H 5.9117258310893135 -0.26549374486992544 0.08201101322991831
H 4.879269090850492 1.0122836205482155 0.8799907223343124
H 4.903535951492822 0.8684681437771216 -0.9223061823624124
Cl -1.583919 1.583919 0.0
Cl -1.583919 -1.583919 0.0
15

Ru 0.0 0.0 0.0
S 1.689294 1.290847 0.0
N 1.689294 -1.290847 0.0
C 2.5506082542818382 -0.22019933546317913 0.06701276447294045
N 3.8899101452767115 -0.6084380124652624 0.06392350512495752
C 3.846818304537396 -2.0148949560956044 0.06544545600562567
H 4.722759572370344 -2.6441061021259125 0.09153497271168579
C 2.51058936589775 -2.4399820318567693 0.01077844597766154
H 2.1866267179656944 -3.4663331400274364 -0.007261718678834081
C 4.98127173362477 0.3058102742508432 0.030158904284898
H 5.917949633366324 -0.26442622869764854 0.08111078039551915
H 4.881807571731795 1.0112015561750312 0.8809906853781019
H 4.907058343418427 0.8705187493064098 -0.9219209173014027
Cl -1.583919 1.583919 0.0
Cl -1.583919 -1.583919 0.0
15

Ru 0.0 0.0 0.0
S 1.689294 1.290847 0.0
N 1.689294 -1.290847 0.0
C 2.556839729908009 -0.22220522314311314 0.06744360638306013
N 3.8845686955015557 -0.6116926181810393 0.06323244486660477
C 3.8499550883578495 -2.0117606276238007 0.060758339817980615
H 4.723032053166796 -2.6490893384797602 0.08960288695455541
C 2.5153260149864565 -2.4393918159886834 0.012077271510147026
H 2.1806260628602927 -3.4684464400354624 -0.006678342872437283
C 4.984550394983689 0.29679621037356035 0.02844087157137572
H 5.926564872485579 -0.26305687159278374 0.08003863954256771
H 4.8883360405209375 1.0094846133083861 0.883481836749922
H 4.913188400403703 0.8739917519955223 -0.9211301382952926
Cl -1.583919 1.583919 0.0
Cl -1.583919 -1.583919 0.0
15

Ru 0.0 0.0 0.0
S 1.689294 1.290847 0.0
N 1.689294 -1.290847 0.0
C 2.5570817544139923 -0.2217970716326865 0.06768072776735462
N 3.8846410512243406 -0.6139788588128974 0.06221679188663532
C 3.855963639769079 -2.011901053574618 0.054170557238389046
H 4.722958285692827 -2.649826885080576 0.08858857102082192
C 2.514953577480235 -2.4394635855006777 0.011680681089511785
H 2.1795890730662384 -3.4681739293930276 -0.0062590818606784865
C 4.984682406812216 0.2972566641034139 0.028630380969050077
H 5.930473711882404 -0.26309167665405725 0.07945486166552858
H 4.891591929701624 1.0078767164124594 0.8838765338655425
H 4.915839492428437 0.8748739540339788 -0.9203768652512027
Cl -1.583919 1.583919 0.0
Cl -1.583919 -1.583919 0.0
15

Ru 0.0 0.0 0.0
S 1.689294 1.290847 0.0
N 1.689294 -1.290847 0.0
C 2.5594057640411396 -0.214112606983951 0.07194437634542035
N 3.887658087475158 -0.6176115804433272 0.05949628610306543
C 3.8567789852648473 -2.016398294480554 0.05325351311665656
H 4.723440342469486 -2.6513258246616616 0.08603963215882408
C 2.5138659485569654 -2.4398119771666185 0.009215021333016505
H 2.1783350668328327 -3.4677145409817376 -0.005552678369592927
C 4.985386476980224 0.29771222932281427 0.028997727961129913
H 5.932728595956441 -0.2631299078086794 0.07899728027804187
H 4.8936965225394475 1.006595568895933 0.8839746047137488
H 4.917822067857055 0.8754302032952597 -0.9196799449783772
Cl -1.583919 1.583919 0.0
Cl -1.583919 -1.583919 0.0
15

Ru 0.0 0.0 0.0
S 1.689294 1.290847 0.0
N 1.689294 -1.290847 0.0
C 2.5567007684297605 -0.21793984991770524 0.07337276954410402
N 3.8937880403694436 -0.6156166448494168 0.056654270188659935
C 3.854691200751821 -2.0303634537765562 0.05391163638630721
H 4.725003740723439 -2.653535404934919 0.08299844782457468
C 2.5150215022721008 -2.440518888961105 0.008115021352823713
H 2.17631350497355 -3.467060532122154 -0.0047847559125240345
C 4.99147821250408 0.2981875544739481 0.030651900189971368
H 5.9370266636253755 -0.26292089887655906 0.07797763727826541
H 4.8974959489885554 1.004119525847283 0.8843756893058201
H 4.921568899615323 0.876534277778291 -0.9182528106274874
Cl -1.583919 1.583919 0.0
Cl -1.583919 -1.583919 0.0
15

Ru 0.0 0.0 0.0
S 1.689294 1.290847 0.0
N 1.689294 -1.290847 0.0
C 2.5561404978224216 -0.22353212847550188 0.07420796146440162
N 3.8956023279719343 -0.6196567766770725 0.055316638834596484
C 3.8543394509551656 -2.026748841671073 0.05493567266222099
H 4.728337142029399 -2.6602266772037764 0.07787975127896991
C 2.5183384939142726 -2.4471860231055147 0.003565035219320737
H 2.173523970933576 -3.4662912831294923 -0.004318902847679655
C 4.995049870691513 0.2960257452370099 0.029067523559770672
H 5.942948003916783 -0.26274667027800264 0.07674711521975189
H 4.902120720376811 1.0015427144588098 0.8856020417845368
H 4.926804986418421 0.8780651385980992 -0.9160531838623835
Cl -1.583919 1.583919 0.0
Cl -1.583919 -1.583919 0.0
15

Ru 0.0 0.0 0.0
S 1.689294 1.290847 0.0
N 1.689294 -1.290847 0.0
C 2.5586025897384084 -0.22303205087200983 0.07457340459986976
N 3.8936423555095225 -0.6202661931152605 0.05528149317266908
C 3.85864562422893 -2.0313022990573155 0.053002017028476865
H 4.727980946869704 -2.662199478919183 0.0772003944380361
C 2.5123878483267514 -2.4419638538900905 0.007310621299668496
H 2.1722032238236464 -3.4680629731995407 -0.00564828994698925
C 4.996824197532615 0.293011633602333 0.028089882801325117
H 5.946622517682514 -0.2627915169909037 0.07587136306156872
H 4.905342108920384 0.9994666921330363 0.8862843983560126
H 4.930031244355551 0.8790485592987067 -0.9150195206342624
Cl -1.583919 1.583919 0.0
Cl -1.583919 -1.583919 0.0
15

Ru 0.0 0.0 0.0
S 1.689294 1.290847 0.0
N 1.689294 -1.290847 0.0
C 2.558301013094985 -0.22288002146726243 0.07478955040682422
N 3.8884609838960196 -0.6243325005692978 0.054877568085778164
C 3.8575371106257768 -2.0315920426883736 0.05254369945779441
H 4.728037278677834 -2.6668485550204712 0.07546568870077512
C 2.5124269339051284 -2.4432202509421193 0.008067858984521533
H 2.170769978323259 -3.4683799725452236 -0.006178805678326217
C 4.997496802898779 0.29187433671230184 0.02787757184167955
H 5.949870155075199 -0.26307172082707875 0.07501653202889404
H 4.9087671356648785 0.9970664172812365 0.886776538656053
H 4.932976095834596 0.8798193342891492 -0.9140699965496012
Cl -1.583919 1.583919 0.0
Cl -1.583919 -1.583919 0.0
15

Ru 0.0 0.0 0.0
S 1.689294 1.290847 0.0
N 1.689294 -1.290847 0.0
C 2.5531026012278577 -0.22136095536313327 0.07778959000595605
N 3.889989537611973 -0.6259735904475422 0.05438968146643203
C 3.8523668065313825 -2.0334131683377197 0.051119106589469256
H 4.728242750951192 -2.6679045034003606 0.0748179249759974
C 2.5125742681098617 -2.445124275255582 0.008687235495841286
H 2.1695634262494905 -3.4683477611041775 -0.006346693676951483
C 4.998336067127805 0.28820633183706534 0.027447008318455566
H 5.951445292335964 -0.26332852866879913 0.07447683001268422
H 4.910650712174089 0.9956427715231356 0.8869965191089586
H 4.9347231676523755 0.8802234013813333 -0.9134959447476642
Cl -1.583919 1.583919 0.0
Cl -1.583919 -1.583919 0.0
15

Ru 0.0 0.0 0.0
S 1.689294 1.290847 0.0
N 1.689294 -1.290847 0.0
C 2.5574967314718675 -0.22719169890190427 0.08094865976574309
N 3.9027731278582896 -0.6271857293206755 0.05157832068938588
C 3.854246474459735 -2.0381057134331426 0.05200581244976821
H 4.726946147147233 -2.6740244920053264 0.0700278169923039
C 2.508204149673732 -2.449236761392718 0.008765359733777763
H 2.164514560961072 -3.468759852207705 -0.006298661877278932
C 4.998521962005675 0.2846404694728901 0.027514342919252654
H 5.960040023028563 -0.26575007381025695 0.07136344350307917
H 4.920066551435312 0.9872637145507697 0.8873999687731091
H 4.9423880380774 0.8811369660585603 -0.9104484581350583
Cl -1.583919 1.583919 0.0
Cl -1.583919 -1.583919 0.0
15

Ru 0.0 0.0 0.0
S 1.689294 1.290847 0.0
N 1.689294 -1.290847 0.0
C 2.5585634981555505 -0.22761998533457775 0.0813380932294505
N 3.903089506221731 -0.6276983841745969 0.051345867810865094
C 3.85450618119062 -2.0384665016423056 0.05190436448236673
H 4.7268436320991665 -2.6743810048012797 0.06985195789958565
C 2.508071683444344 -2.449104774750719 0.008787049030299756
H 2.1640014419015987 -3.4689272950445806 -0.006302193208106381
C 4.999867482742395 0.27933184711403697 0.027509366774088714
H 5.960121841584236 -0.2657796155029806 0.07124340164789701
H 4.920375279593657 0.9869153100224496 0.8874992832947596
H 4.942645123000395 0.8811433977513862 -0.910316260321663
Cl -1.583919 1.583919 0.0
Cl -1.583919 -1.583919 0.0
15

Ru 0.0 0.0 0.0
S 1.689294 1.290847 0.0
N 1.689294 -1.290847 0.0
C 2.561878348830733 -0.2268721873450223 0.08197585457746431
N 3.9030216160050393 -0.637011920637845 0.048563501815026146
C 3.8553718162048107 -2.0395572571839833 0.05111918281610397
H 4.726325916805834 -2.6762255258005587 0.06911322931674771
C 2.507237891479183 -2.447117715288204 0.00901120230253663
H 2.16230003596657 -3.469718547392671 -0.006329089499856298
C 5.004593955560562 0.2804657299709111 0.02701730100095546
H 5.961687991760521 -0.2667274243385702 0.06944962272005052
H 4.922433841631356 0.9841037511426105 0.8879525360166648
H 4.944572840046696 0.8807579729974776 -0.9090247157141378
Cl -1.583919 1.583919 0.0
Cl -1.583919 -1.583919 0.0
15

Ru 0.0 0.0 0.0
S 1.689294 1.290847 0.0
N 1.689294 -1.290847 0.0
C 2.5636994128112924 -0.22749322567513472 0.0822720173581432
N 3.9011676087841143 -0.6348046898874842 0.04867011561907839
C 3.8581366411562334 -2.046446500378296 0.047524305026045655
H 4.725872820498651 -2.678381203543179 0.068318057071793
C 2.507670656912118 -2.447408995915254 0.008958804146626764
H 2.16061804134559 -3.470061634777165 -0.006266213873194168
C 5.008424488136436 0.2798197502063328 0.026307205049815863
H 5.963376809631966 -0.2675893134640328 0.06840021400952413
H 4.924224725459648 0.9816870426595143 0.8884081281820525
H 4.9461980122514415 0.8805025656859565 -0.9081284448802178
Cl -1.583919 1.583919 0.0
Cl -1.583919 -1.583919 0.0
15

Ru 0.0 0.0 0.0
S 1.689294 1.290847 0.0
N 1.689294 -1.290847 0.0
C 2.5633696080028576 -0.22730069722841287 0.0825248151189595
N 3.90199834910394 -0.6345190910591681 0.048773140997970664
C 3.8564109754527256 -2.045670660702902 0.04718402568085662
H 4.725989565393847 -2.6820983683340516 0.06692103927449417
C 2.5127780585675863 -2.452082242762669 0.007919499513358696
H 2.159028179672899 -3.470134954804028 -0.006084698532392977
C 5.009306407535597 0.2790358451734607 0.026055235111369666
H 5.965651411746364 -0.26882820208634267 0.067302491508768
H 4.926200563516307 0.9793990001719074 0.8888357428253242
H 4.94802613131222 0.8803768540378427 -0.9073725165801863
Cl -1.583919 1.583919 0.0
Cl -1.583919 -1.583919 0.0
15

Ru 0.0 0.0 0.0
S 1.689294 1.290847 0.0
N 1.689294 -1.290847 0.0
C 2.560074414160887 -0.22435970169807073 0.08554415444623757
N 3.9053452194094147 -0.6354192500654872 0.04895669925148375
C 3.857985635705237 -2.0445279776629186 0.04634959261112515
H 4.726347027046979 -2.693174841511002 0.0617646025952405
C 2.5014573505418287 -2.44852615123699 0.005597222585572898
H 2.15343669383872 -3.4736394988552948 -0.005784211386621774
C 5.023348066019052 0.2672589418695732 0.02325624593308523
H 5.976044742322981 -0.27511176239505436 0.06246129549041719
H 4.93878017918919 0.9661996604390869 0.8916447660608962
H 4.958613745563257 0.8802961390614037 -0.9039965788994038
Cl -1.583919 1.583919 0.0
Cl -1.583919 -1.583919 0.0
15

Ru 0.0 0.0 0.0
S 1.689294 1.290847 0.0
N 1.689294 -1.290847 0.0
C 2.560074414160887 -0.22435970169807073 0.08554415444623757
N 3.9053452194094147 -0.6354192500654872 0.04895669925148375
C 3.857985635705237 -2.0445279776629186 0.04634959261112515
H 4.726347027046979 -2.693174841511002 0.0617646025952405
C 2.5014573505418287 -2.44852615123699 0.005597222585572898
H 2.15343669383872 -3.4736394988552948 -0.005784211386621774
C 5.023348066019052 0.2672589418695732 0.02325624593308523
H 5.976044742322981 -0.27511176239505436 0.06246129549041719
H 4.93878017918919 0.9661996604390869 0.8916447660608962
H 4.958613745563257 0.8802961390614037 -0.9039965788994038
Cl -1.583919 1.583919 0.0
Cl -1.583919 -1.583919 0.0
15

Ru 0.0 0.0 0.0
S 1.689294 1.290847 0.0
N 1.689294 -1.290847 0.0
C 2.5625753390649058 -0.22525891487892982 0.08652370453898128
N 3.905794360981566 -0.6352255754517826 0.0485704343953424
C 3.855879074455534 -2.0462363776298647 0.045465671841513546
H 4.725360886623198 -2.6936656127963983 0.061157286546015634
C 2.499050507749007 -2.449225339219359 0.005684476076204925
H 2.151988190498393 -3.473161596032614 -0.006211841929019146
C 5.021010165456917 0.2734602393437031 0.028723628253253582
H 5.978441574632136 -0.2772187215081965 0.06163646140028619
H 4.941184412901263 0.9639033142510554 0.8914424153165798
H 4.960409722938896 0.8798393940489329 -0.9035023264026
Cl -1.583919 1.583919 0.0
Cl -1.583919 -1.583919 0.0
15

Ru 0.0 0.0 0.0
S 1.689294 1.290847 0.0
N 1.689294 -1.290847 0.0
C 2.568272819093615 -0.22802107841391572 0.08807992026520951
N 3.906466925085479 -0.6346007265175001 0.04857019191618943
C 3.8492388266553954 -2.051191816597315 0.04290952897009304
H 4.72288971284141 -2.6947798463074797 0.059826988317710925
C 2.4979002906828427 -2.453359884526462 0.0069030409139924035
H 2.1482318650051213 -3.471983695158026 -0.0072848597724166336
C 5.021442522899682 0.2709013014571853 0.0266047960455854
H 5.980156435654471 -0.27896174454778727 0.06078811032348982
H 4.944997820241088 0.9617882095697077 0.8934663326855108
H 4.963870453257326 0.8793787789336001 -0.9019485734256151
Cl -1.583919 1.583919 0.0
Cl -1.583919 -1.583919 0.0
15

Ru 0.0 0.0 0.0
S 1.689294 1.290847 0.0
N 1.689294 -1.290847 0.0
C 2.568272819093615 -0.22802107841391572 0.08807992026520951
N 3.906466925085479 -0.6346007265175001 0.04857019191618943
C 3.8492388266553954 -2.051191816597315 0.04290952897009304
H 4.72288971284141 -2.6947798463074797 0.059826988317710925
C 2.4979002906828427 -2.453359884526462 0.0069030409139924035
H 2.1482318650051213 -3.471983695158026 -0.0072848597724166336
C 5.021442522899682 0.2709013014571853 0.0266047960455854
H 5.980156435654471 -0.27896174454778727 0.06078811032348982
H 4.944997820241088 0.9617882095697077 0.8934663326855108
H 4.963870453257326 0.8793787789336001 -0.9019485734256151
Cl -1.583919 1.583919 0.0
Cl -1.583919 -1.583919 0.0
15

Ru 0.0 0.0 0.0
S 1.689294 1.290847 0.0
N 1.689294 -1.290847 0.0
C 2.564127723388702 -0.22370827033433519 0.09138603593911461
N 3.9071384428062186 -0.6379214004629411 0.048150389167081746
C 3.8517367885147205 -2.049570052164704 0.04289194697412706
H 4.720677120946691 -2.695851053483445 0.05866394056300409
C 2.5010730710503695 -2.4531183156778384 0.0064524732671720555
H 2.1457582050078985 -3.472641661717086 -0.007522148673142158
C 5.023501490543712 0.26889198927626073 0.02575519977608343
H 5.9810848049793615 -0.2804452108400382 0.059946106969134945
H 4.947479390622057 0.9602620519089361 0.8946602613517819
H 4.965673249997718 0.8794070131735543 -0.9014159291406268
Cl -1.583919 1.583919 0.0
Cl -1.583919 -1.583919 0.0
15

Ru 0.0 0.0 0.0
S 1.689294 1.290847 0.0
N 1.689294 -1.290847 0.0
C 2.567482528115353 -0.22929568054965382 0.09553559836191014
N 3.904339994162219 -0.6370151665471387 0.04706867160060146
C 3.853854121686881 -2.053126003504008 0.04214833748962549
H 4.7162065615973185 -2.698957701816145 0.05544430335735213
C 2.50215716883609 -2.4504696827194623 0.005821771177365222
H 2.141956562611781 -3.473300073160611 -0.008194569053298512
C 5.028569503278995 0.26240063431985805 0.025105419516278208
H 5.985669108290161 -0.28714045546714617 0.05617075670000086
H 4.956538091302655 0.9537495356978734 0.8979024278337835
H 4.971370892662637 0.8793181762490201 -0.8999415412068544
Cl -1.583919 1.583919 0.0
Cl -1.583919 -1.583919 0.0
15

Ru 0.0 0.0 0.0
S 1.689294 1.290847 0.0
N 1.689294 -1.290847 0.0
C 2.565465918663661 -0.22726125434698263 0.09623007182904147
N 3.908204281649986 -0.6408135633618957 0.046818918731920636
C 3.8514191511581948 -2.05123946965127 0.04150685430653393
H 4.716553201833326 -2.700199391915722 0.05491850627734438
C 2.5015394102230237 -2.4526647243649933 0.005759138794758085
H 2.141643470277587 -3.472445744092266 -0.008456465614251701
C 5.028116905330286 0.26287106283209355 0.025350435641999056
H 5.986357533296221 -0.2885975849711606 0.05554880223618487
H 4.9581878893746785 0.9521210870299623 0.8978771363770903
H 4.97247409101002 0.8789783709110499 -0.8994432679173934
Cl -1.583919 1.583919 0.0
Cl -1.583919 -1.583919 0.0
15

Ru 0.0 0.0 0.0
S 1.689294 1.290847 0.0
N 1.689294 -1.290847 0.0
C 2.5672179386799043 -0.22725553689987033 0.0981958286494684
N 3.9074710227289704 -0.6397658250392659 0.04649362392108666
C 3.849261506159518 -2.053839999335522 0.03975360973176249
H 4.7159661560234225 -2.7033580499615275 0.052916787093625704
C 2.499087807841989 -2.453286492707825 0.005418325397513759
H 2.140364438324774 -3.4713942895739116 -0.009223541030640185
C 5.026201703342617 0.2653220139919514 0.027903452770870394
H 5.988347480305884 -0.2931032501103836 0.053228516808109805
H 4.964698453356226 0.9456764951070085 0.8984084114766417
H 4.976420549986002 0.8778526202127908 -0.8977280099845397
Cl -1.583919 1.583919 0.0
Cl -1.583919 -1.583919 0.0
15

Ru 0.0 0.0 0.0
S 1.689294 1.290847 0.0
N 1.689294 -1.290847 0.0
C 2.5672179386799043 -0.22725553689987033 0.0981958286494684
N 3.9074710227289704 -0.6397658250392659 0.04649362392108666
C 3.849261506159518 -2.053839999335522 0.03975360973176249
H 4.7159661560234225 -2.7033580499615275 0.052916787093625704
C 2.499087807841989 -2.453286492707825 0.005418325397513759
H 2.140364438324774 -3.4713942895739116 -0.009223541030640185
C 5.026201703342617 0.2653220139919514 0.027903452770870394
H 5.988347480305884 -0.2931032501103836 0.053228516808109805
H 4.964698453356226 0.9456764951070085 0.8984084114766417
H 4.976420549986002 0.8778526202127908 -0.8977280099845397
Cl -1.583919 1.583919 0.0
Cl -1.583919 -1.583919 0.0
15

Ru 0.0 0.0 0.0
S 1.689294 1.290847 0.0
N 1.689294 -1.290847 0.0
C 2.5664503277898585 -0.22842689249768786 0.10195964250210637
N 3.9049790857981788 -0.6417954893814046 0.04554513811945136
C 3.851506296387118 -2.0559131286013046 0.03758995651138958
H 4.712533632917648 -2.706514626777665 0.04976801722628811
C 2.496722864715444 -2.4528545399399775 0.0039532711452386704
H 2.1369145839800154 -3.4717497235601598 -0.010406118065517622
C 5.033899077913587 0.25794118912925207 0.029349002764124974
H 5.98460917526192 -0.2951415161047984 0.05005900859561195
H 4.970474317494062 0.9429762772159894 0.905206158122345
H 4.9796755963488435 0.8786246346806256 -0.8961371526875891
Cl -1.583919 1.583919 0.0
Cl -1.583919 -1.583919 0.0
15

Ru 0.0 0.0 0.0
S 1.689294 1.290847 0.0
N 1.689294 -1.290847 0.0
C 2.566426923339249 -0.2284221674567383 0.10203969422761468
N 3.90464290208492 -0.6422814760536437 0.04535045745419028
C 3.8515819692240583 -2.056117673858604 0.03734538991536313
H 4.712522323063516 -2.7065745455925927 0.049718596734273604
C 2.496685395501047 -2.452883829004907 0.0038866072032382936
H 2.136849585089662 -3.4717488181352265 -0.010431892646613108
C 5.033859037400059 0.2578731651006168 0.0292942390559877
H 5.9845699942822295 -0.295297265682909 0.049939922459123876
H 4.970586235141101 0.9428830465484447 0.9052704521128114
H 4.979809528045635 0.8786208348050542 -0.8960423283582221
Cl -1.583919 1.583919 0.0
Cl -1.583919 -1.583919 0.0
15

Ru 0.0 0.0 0.0
S 1.689294 1.290847 0.0
N 1.689294 -1.290847 0.0
C 2.5657375298260057 -0.22812326955340598 0.10394620338108752
N 3.909018488772726 -0.6447005573200119 0.04496191879404896
C 3.8478872262869284 -2.0572765788269254 0.035257074604910316
H 4.712603937729556 -2.708488846722827 0.048207070557490184
C 2.4973407615823353 -2.45477077299582 0.002173023501570205
H 2.1352418211173543 -3.471650314694299 -0.011094885275117022
C 5.029978766525897 0.25458195683179713 0.02563798172786843
H 5.986166648230146 -0.2991581800858469 0.04826484874147427
H 4.973605126538753 0.9399468435138558 0.9063546558515024
H 4.981843066781964 0.8780020525530444 -0.894143064831243
Cl -1.583919 1.583919 0.0
Cl -1.583919 -1.583919 0.0
15

Ru 0.0 0.0 0.0
S 1.689294 1.290847 0.0
N 1.689294 -1.290847 0.0
C 2.5714696669220305 -0.23021793433536725 0.13200054526324104
N 3.901777539391037 -0.6499694089693991 0.04277651207646923
C 3.848812861163086 -2.06428843322048 0.03299043246406449
H 4.708020102022714 -2.71724795474816 0.039349334306029604
C 2.4928376643878374 -2.453756276472125 0.0011432657017337658
H 2.1274601356680862 -3.4732781017478573 -0.015729562053403826
C 5.041973259964711 0.2492394735798631 0.023784909036091047
H 5.991579474999024 -0.31288327296320917 0.04206583422829697
H 4.988406985619031 0.9186349186660071 0.9066020767301407
H 4.985724511194879 0.8755355444397039 -0.8913096779454799
Cl -1.583919 1.583919 0.0
Cl -1.583919 -1.583919 0.0
15

Ru 0.0 0.0 0.0
S 1.689294 1.290847 0.0
N 1.689294 -1.290847 0.0
C 2.5714696669220305 -0.23021793433536725 0.13200054526324104
N 3.901777539391037 -0.6499694089693991 0.04277651207646923
C 3.848812861163086 -2.06428843322048 0.03299043246406449
H 4.708020102022714 -2.71724795474816 0.039349334306029604
C 2.4928376643878374 -2.453756276472125 0.0011432657017337658
H 2.1274601356680862 -3.4732781017478573 -0.015729562053403826
C 5.041973259964711 0.2492394735798631 0.023784909036091047
H 5.991579474999024 -0.31288327296320917 0.04206583422829697
H 4.988406985619031 0.9186349186660071 0.9066020767301407
H 4.985724511194879 0.8755355444397039 -0.8913096779454799
Cl -1.583919 1.583919 0.0
Cl -1.583919 -1.583919 0.0
15

Ru 0.0 0.0 0.0
S 1.689294 1.290847 0.0
N 1.689294 -1.290847 0.0
C 2.5659488892998903 -0.23051900276613965 0.1362831043729222
N 3.9097674189786153 -0.6499989551847755 0.042290986810068334
C 3.8446835352115265 -2.0642704699307517 0.031579405865897706
H 4.708193698834085 -2.7185805135586496 0.03833319378676889
C 2.4929100781419318 -2.456572660561836 0.0006320317405875349
H 2.126529582728194 -3.472469729556522 -0.01660142548963043
C 5.039745727880175 0.24373079612822998 0.023220066981172238
H 5.992872031944464 -0.3150285255679851 0.04075138493504558
H 4.990729508205516 0.9174452599154058 0.9078760554734598
H 4.987076389802812 0.8756454162965602 -0.8910234925473568
Cl -1.583919 1.583919 0.0
Cl -1.583919 -1.583919 0.0
15

Ru 0.0 0.0 0.0
S 1.689294 1.290847 0.0
N 1.689294 -1.290847 0.0
C 2.574499511205168 -0.23512208245404306 0.15271660341047072
N 3.903340629769282 -0.6527882812467506 0.043446185523921314
C 3.8459089710660934 -2.065136346908581 0.02595112401751354
H 4.703363175565503 -2.7262613657231256 0.03048306062754703
C 2.488656021292056 -2.4595164422460796 -0.0024768208729436816
H 2.1216148081733115 -3.4720828542411106 -0.021215271635475513
C 5.0448940197905685 0.23715222177724643 0.023159625691054044
H 5.999290449657589 -0.32928961988699784 0.03172948945675229
H 5.002757582481965 0.9066219429142818 0.9125946618387923
H 4.993780858184042 0.873765326088614 -0.8879101516836683
Cl -1.583919 1.583919 0.0
Cl -1.583919 -1.583919 0.0
15

Ru 0.0 0.0 0.0
S 1.689294 1.290847 0.0
N 1.689294 -1.290847 0.0
C 2.574499511205168 -0.23512208245404306 0.15271660341047072
N 3.903340629769282 -0.6527882812467506 0.043446185523921314
C 3.8459089710660934 -2.065136346908581 0.02595112401751354
H 4.703363175565503 -2.7262613657231256 0.03048306062754703
C 2.488656021292056 -2.4595164422460796 -0.0024768208729436816
H 2.1216148081733115 -3.4720828542411106 -0.021215271635475513
C 5.0448940197905685 0.23715222177724643 0.023159625691054044
H 5.999290449657589 -0.32928961988699784 0.03172948945675229
H 5.002757582481965 0.9066219429142818 0.9125946618387923
H 4.993780858184042 0.873765326088614 -0.8879101516836683
Cl -1.583919 1.583919 0.0
Cl -1.583919 -1.583919 0.0
15

Ru 0.0 0.0 0.0
S 1.689294 1.290847 0.0
N 1.689294 -1.290847 0.0
C 2.5676127265452715 -0.23240280935206614 0.15925470726065494
N 3.91113572199111 -0.6543095713243084 0.042624137959126646
C 3.8415101059815515 -2.068032801718996 0.02446622136551411
H 4.702945128775992 -2.72622997088882 0.02864886133721844
C 2.4895256161786397 -2.4583388730597573 -0.0044347393196558765
H 2.120147697376621 -3.4731834305667286 -0.022492660080088562
C 5.044392966012716 0.23377380569240108 0.023503771284871657
H 5.998599832677657 -0.3312968368169595 0.030012266989269055
H 5.0051234185219755 0.9040520506285101 0.9129125466645545
H 4.994728489123797 0.8732328250143745 -0.8870961839206459
Cl -1.583919 1.583919 0.0
Cl -1.583919 -1.583919 0.0
15

Ru 0.0 0.0 0.0
S 1.689294 1.290847 0.0
N 1.689294 -1.290847 0.0
C 2.57250737432718 -0.23354149226375442 0.17483340863219748
N 3.904335502513093 -0.6566030599361408 0.04095412980258085
C 3.8435851391305444 -2.0721113006052456 0.02162514820915185
H 4.697759097652681 -2.727546467756407 0.019792193044169883
C 2.4864674306301815 -2.4576459287084846 -0.006967530072900158
H 2.1164650002418948 -3.474983859404518 -0.027655717100499876
C 5.053495766220975 0.2233317938401833 0.023950116760228332
H 5.996396814927184 -0.3385340696544561 0.024007651549538364
H 5.013493161192128 0.8927466003277966 0.9140477540824661
H 4.997938729130798 0.8696827720438324 -0.882632455662757
Cl -1.583919 1.583919 0.0
Cl -1.583919 -1.583919 0.0
15

Ru 0.0 0.0 0.0
S 1.689294 1.290847 0.0
N 1.689294 -1.290847 0.0
C 2.57250737432718 -0.23354149226375442 0.17483340863219748
N 3.904335502513093 -0.6566030599361408 0.04095412980258085
C 3.8435851391305444 -2.0721113006052456 0.02162514820915185
H 4.697759097652681 -2.727546467756407 0.019792193044169883
C 2.4864674306301815 -2.4576459287084846 -0.006967530072900158
H 2.1164650002418948 -3.474983859404518 -0.027655717100499876
C 5.053495766220975 0.2233317938401833 0.023950116760228332
H 5.996396814927184 -0.3385340696544561 0.024007651549538364
H 5.013493161192128 0.8927466003277966 0.9140477540824661
H 4.997938729130798 0.8696827720438324 -0.882632455662757
Cl -1.583919 1.583919 0.0
Cl -1.583919 -1.583919 0.0
15

Ru 0.0 0.0 0.0
S 1.689294 1.290847 0.0
N 1.689294 -1.290847 0.0
C 2.567930956949619 -0.23344599931074214 0.18168488304845465
N 3.9101575339391674 -0.659683620526799 0.03958056314426185
C 3.8384628947907125 -2.071417563197204 0.019134570653983766
H 4.698665909881301 -2.7297954895788723 0.01799275794716064
C 2.4867390438038184 -2.4605623390905333 -0.00804710852088186
H 2.115462961841893 -3.4742677394082158 -0.029534307493497714
C 5.048325479601386 0.2182254129260113 0.022916053455008543
H 5.998564652159125 -0.3429745285948167 0.0221862929582981
H 5.016213958229705 0.8895197486915563 0.9144625731022159
H 4.999273700483444 0.8684551567186932 -0.8812441451978399
Cl -1.583919 1.583919 0.0
Cl -1.583919 -1.583919 0.0
15

Ru 0.0 0.0 0.0
S 1.689294 1.290847 0.0
N 1.689294 -1.290847 0.0
C 2.571771308653328 -0.2358586407037027 0.18749849330968704
N 3.9052145340301423 -0.6600709818102449 0.03933107344356515
C 3.8391732680812076 -2.0739137452928613 0.017392288421941307
H 4.6973670917503725 -2.7305908044487115 0.016521885290037314
C 2.4851135538550326 -2.4598131979547473 -0.008761233467444392
H 2.1146372549864223 -3.474656705977681 -0.03113297790843224
C 5.051415781256636 0.22273267187171486 0.02281619434522152
H 5.9994101534890305 -0.3464538498800771 0.020719927340168257
H 5.0178244145159745 0.8857957320274182 0.9144454073589456
H 4.999608241762222 0.8669468819212498 -0.8801704220989199
Cl -1.583919 1.583919 0.0
Cl -1.583919 -1.583919 0.0
15

Ru 0.0 0.0 0.0
S 1.689294 1.290847 0.0
N 1.689294 -1.290847 0.0
C 2.5758859762651696 -0.2703898417398197 0.4065850415653474
N 3.8697087626257454 -0.6712914180436691 0.01155497833258402
C 3.802135825075215 -2.111983188959374 -0.03676569352236612
H 4.667123162986983 -2.76766257020202 -0.03987489311808507
C 2.450231422844163 -2.4749155729220624 -0.04209014730279703
H 2.0829555325585867 -3.4805943819129785 -0.08409302438749267
C 5.037628853893306 0.2065529854891707 0.020012624636839702
H 6.015564806951295 -0.4208366575417457 -0.018294539660996315
H 5.068494066252673 0.810502774381648 0.9328378621085816
H 5.011783224257822 0.8627956947329269 -0.876108443383798
Cl -1.583919 1.583919 0.0
Cl -1.583919 -1.583919 0.0
15

Ru 0.0 0.0 0.0
S 1.689294 1.290847 0.0
N 1.689294 -1.290847 0.0
C 2.5756547643621763 -0.27029887308642436 0.407175275269609
N 3.869044805451105 -0.6716742727381673 0.010843135932272449
C 3.8013170888281103 -2.112499385919821 -0.03792681467395204
H 4.6669936301860115 -2.7677887572911404 -0.04014875306231064
C 2.450085977023385 -2.4750706939437905 -0.04236462177019191
H 2.0828071974963165 -3.4806435019550923 -0.08424093287231152
C 5.029554300254552 0.19637254644541094 0.01824007107762848
H 6.015523008202668 -0.42170028087387434 -0.018839967512051296
H 5.068528774302047 0.8104541756600848 0.9329403813332647
H 5.011902721786211 0.8627742778369796 -0.8760338232829833
Cl -1.583919 1.583919 0.0
Cl -1.583919 -1.583919 0.0
15

Ru 0.0 0.0 0.0
S 1.689294 1.290847 0.0
N 1.689294 -1.290847 0.0
C 2.5614002318746265 -0.26113899307780525 0.41896896753950724
N 3.871067791905361 -0.6823391141910574 0.0053449377272597005
C 3.7999303263438224 -2.097113938999693 -0.03814259745426482
H 4.663928801020295 -2.7695920664455316 -0.047612744278822804
C 2.4522228857386597 -2.479142243661795 -0.04762961100889692
H 2.077792859903183 -3.482835927134294 -0.08677422955442428
C 5.04710529566774 0.18174283749347156 0.015125944014154295
H 6.001480181486506 -0.4193673510173777 -0.022282198470008074
H 5.067307634070617 0.8098108048830389 0.9371694060671746
H 5.011025467912144 0.8626167986089186 -0.8735616756304282
Cl -1.583919 1.583919 0.0
Cl -1.583919 -1.583919 0.0
15

Ru 0.0 0.0 0.0
S 1.689294 1.290847 0.0
N 1.689294 -1.290847 0.0
C 2.566724869124538 -0.2661887696699367 0.4213524813446776
N 3.8719736527178705 -0.6795617166304295 0.0010616674631751628
C 3.803180790968241 -2.100967448052837 -0.03907722835408584
H 4.6563110483435475 -2.767671031477591 -0.06082405306243925
C 2.455925971749231 -2.475228835521401 -0.05358242827168404
H 2.0707291441245332 -3.4873314118412804 -0.09164353338818801
C 5.053774921975506 0.16848725297541992 0.013634011981560135
H 5.990000747772724 -0.41707387985170913 -0.025057907102777312
H 5.065882953735208 0.8058578035351819 0.9387927428774351
H 5.0089076197918745 0.8603253175672907 -0.8645648794778136
Cl -1.583919 1.583919 0.0
Cl -1.583919 -1.583919 0.0
