19

Fe  0.0  0.0  0.0 
N  1.2687043134631488  1.3737865063393218  0.0 
N  1.2687043134631488  -1.3737865063393222  0.0 
C  2.5480130372077525  0.6972238194072176  -0.18171849108497773 
C  3.7355001565893886  1.4264505918185033  -0.3426096210497726 
C  4.906007980620146  0.6840725947324733  -0.5780782672117375 
C  4.907256145768897  -0.6734725124541848  -0.6260022073390366 
C  3.736313729124092  -1.3539477287168638  -0.497096051728456 
C  2.5783052080083433  -0.6768404557107602  -0.237552729977376 
H  1.35122422722461  2.0163416383970585  0.6995744249892768 
H  1.0275298651583793  1.8142542662188468  -0.8188948516089368 
H  1.0087668341604967  -1.8227151842336655  -0.8025799767112536 
H  1.369398521878741  -2.006783628517497  0.7130310860724947 
H  3.736201661010719  2.3755016299409917  -0.2807761759720865 
H  5.740632745255379  1.140060655547851  -0.6729820113499966 
H  5.720807385060521  -1.1443892393362056  -0.8127411357654204 
H  3.730737301143783  -2.3031725602191075  -0.5577697916042588 
Cl  -1.5202795795510768  1.5202795795510768  0.0 
Cl  -1.5202795795510768  -1.5202795795510768  0.0 
