43
unq_CSD-PACBOM-02-a
N  -1.9243999999999994  -0.7568999999999999  0.8200000000000003 
N  -0.5350999999999999  -1.2037  -1.3142 
C  -2.4876999999999994  -1.7166  0.07899999999999974 
C  -3.6883999999999997  -2.336  0.4581999999999997 
C  -4.3206  -1.9291  1.6093000000000002 
C  -3.7466999999999997  -0.9186999999999999  2.3646000000000003 
C  -2.5603  -0.35819999999999985  1.9511000000000003 
C  -1.7372999999999994  -2.0444999999999998  -1.1730999999999998 
C  0.14470000000000027  -1.4768999999999999  -2.5529 
C  1.0924000000000005  -2.5103  -2.6025 
C  1.7243000000000004  -2.7672  -3.8163 
C  1.423000000000001  -2.0183  -4.9531 
C  0.4817  -1.0005  -4.8793 
C  -0.18399999999999928  -0.7141  -3.6917 
C  1.4501999999999997  -3.3497  -1.3820000000000001 
C  2.950500000000001  -3.2544  -1.0497999999999998 
C  1.0548000000000002  -4.8148  -1.5598 
C  -1.2386  0.3875000000000002  -3.6311 
C  -0.6038999999999994  1.7757  -3.5635000000000003 
C  -2.1933  0.2987000000000002  -4.8327 
H  -4.084  -3.0731  -0.1075999999999997 
H  -5.1697  -2.3512  1.8935000000000004 
H  -4.1866  -0.6032  3.1938000000000004 
H  -2.1568999999999994  0.3623000000000003  2.4983000000000004 
H  -2.311  -1.8983999999999999  -1.9283000000000001 
H  -1.4726  -2.9664  -1.1458 
H  2.4029  -3.4983  -3.8737 
H  1.8707000000000003  -2.2071  -5.793 
H  0.28610000000000024  -0.4841  -5.6645 
H  0.9459  -2.9913  -0.6097999999999999 
H  3.1346999999999996  -3.746  -0.21009999999999973 
H  3.477800000000001  -3.6509  -1.7869000000000002 
H  3.2032  -2.3037  -0.9369000000000001 
H  1.6002999999999998  -5.213  -2.2411 
H  1.1844000000000001  -5.2828  -0.7318000000000002 
H  0.13180000000000014  -4.867900000000001  -1.8167 
H  -1.7821999999999996  0.25280000000000014  -2.79 
H  -0.09999999999999964  1.8584  -2.7511 
H  -0.019599999999999618  1.8983000000000003  -4.3162 
H  -1.2924999999999995  2.4446999999999997  -3.5817 
H  -1.7008  0.4934000000000003  -5.6567 
H  -2.5717999999999996  -0.6039999999999999  -4.8833 
H  -2.9173999999999998  0.9506999999999999  -4.7237 
