43
unq_CSD-LILZAI-02-a
N  -1.1152  -1.358  -0.8193 
N  -0.2861  -1.1032  1.5857 
C  -1.7156  -1.6937  -1.9879 
C  -2.4092  -2.8891  -1.8671 
C  -2.2483  -3.323  -0.5518 
C  -1.4499  -2.364  0.0668 
C  -1.0052  -2.1778  1.3964 
C  -1.4084  -3.1256  2.4759 
C  0.116  -0.7717  2.9187 
C  1.2972  -1.3398  3.4517 
C  1.6986  -0.9104  4.7099 
C  0.978  0.039  5.4148 
C  -0.1906  0.558  4.888 
C  -0.6441  0.1598  3.6319 
C  2.0878  -2.3717  2.6619 
C  -1.9277  0.7386  3.0751 
C  -1.8068  2.2476  2.8263 
C  -3.111  0.4351  3.9944 
C  2.9393  -1.7231  1.5658 
C  2.9517  -3.2588  3.5528 
H  -1.672  -1.1768  -2.7715 
H  -2.896  -3.3159  -2.5587 
H  -2.6011  -4.106  -0.1698 
H  2.4841  -1.2807  5.0831 
H  1.2826  0.3447  6.2619 
H  -0.6931  1.1925  5.4011 
H  1.4263  -2.9611  2.2073 
H  -2.0849  0.3005  2.2202 
H  -2.6271  2.5721  2.433 
H  -1.6468  2.7048  3.6796 
H  -1.0653  2.4381  2.2245 
H  -3.9293  0.7801  3.6033 
H  -2.9885  0.8586  4.8756 
H  -3.196  -0.5246  4.1191 
H  3.4049  -2.4027  1.0865 
H  3.5994  -1.1375  1.9677 
H  2.406  -1.2065  0.9478 
H  3.3573  -3.9632  3.0122 
H  2.4146  -3.6654  4.2577 
H  3.66  -2.7565  3.9719 
H  -1.0099  -2.9314  3.3067 
H  -1.1373  -3.995  2.2524 
H  -2.3434  -3.1615  2.5652 
