50
unq_CSD-LIPMON-02-a
N  -1.3708999999999998  -1.7302  -0.888300000000001 
N  0.5941999999999998  -2.3087999999999997  0.09419999999999895 
C  -0.5164  -2.6828  -0.5285000000000011 
H  -0.6962999999999999  -3.5976999999999997  -0.708400000000001 
C  -2.5347  -2.1300999999999997  -1.6263000000000005 
C  -3.7902  -1.8739  -1.0582000000000011 
C  -4.9468  -2.1549999999999994  -1.7941000000000003 
H  -5.7917  -1.9836  -1.3958000000000013 
C  -4.9098  -2.6788  -3.094000000000001 
H  -5.701  -2.8669  -3.5853 
C  -3.602  -2.9124  -3.6359000000000012 
H  -3.5347999999999997  -3.2701  -4.513300000000001 
C  -2.4357999999999995  -2.6422999999999996  -2.942400000000001 
C  -3.9223  -1.3188999999999993  0.3630999999999993 
H  -3.1208  -0.7787999999999995  0.5774000000000008 
H  -4.7117  -0.7225999999999999  0.40759999999999863 
C  -4.0694  -2.41  1.3841 
H  -4.9008  -2.9016999999999995  1.2182999999999993 
H  -4.0966000000000005  -2.0168999999999997  2.2796999999999983 
H  -3.308  -3.0231  1.3173999999999992 
C  -1.0869999999999997  -2.9098999999999995  -3.6197 
H  -1.1185  -2.5828999999999995  -4.553700000000001 
H  -0.37819999999999965  -2.4076999999999993  -3.1446000000000005 
C  -0.7416999999999998  -4.393  -3.617700000000001 
H  -0.6448  -4.7047  -2.691700000000001 
H  0.0990000000000002  -4.5341  -4.098800000000001 
H  -1.4593999999999996  -4.8961  -4.0564 
C  1.4897999999999998  -3.3350999999999997  0.6056999999999988 
C  2.7907  -3.3612999999999995  0.1426999999999996 
C  3.6878  -4.3279  0.6501999999999981 
H  4.5817000000000005  -4.3675  0.3308 
C  3.2501000000000007  -5.2104  1.6104999999999983 
H  3.8516000000000004  -5.8557  1.964299999999998 
C  1.9538000000000002  -5.1704  2.0673999999999992 
H  1.6712999999999996  -5.800599999999999  2.718399999999999 
C  1.0654999999999992  -4.245699999999999  1.6043999999999983 
C  3.2914000000000003  -2.3796  -0.9449000000000005 
H  4.218000000000001  -2.0926  -0.7428000000000008 
H  2.7138999999999998  -1.5749999999999993  -0.9672000000000001 
C  3.2489999999999997  -3.1081999999999996  -2.3399 
H  3.6832000000000003  -3.9829999999999997  -2.2651000000000003 
H  3.7207999999999997  -2.5663  -3.007100000000001 
H  2.3173000000000004  -3.2291  -2.616900000000001 
C  -0.3107999999999995  -4.2376  2.1927999999999983 
H  -0.24129999999999985  -4.143599999999999  3.177299999999999 
H  -0.806  -3.4526  1.8469999999999978 
C  -1.0537  -5.428999999999999  1.8794000000000004 
H  -1.5537  -5.301  1.0565999999999995 
H  -1.6692  -5.6318  2.619299999999999 
H  -0.42600000000000016  -6.1819  1.7743000000000002 
