21
unq_CSD-LISMUW-02-b
N  1.8718000000000004  -0.4832000000000001  -0.3355999999999999 
N  0.03910000000000036  -2.0712  0.46019999999999994 
C  3.4456  -1.9044999999999996  0.8965000000000001 
H  3.0706  -1.5904999999999996  1.7458 
H  4.1986  -1.3320999999999996  0.6406999999999998 
H  3.7571000000000003  -2.8282999999999996  0.9984999999999999 
C  2.9778000000000002  -2.3416999999999994  -1.5175999999999998 
H  2.2944000000000004  -2.3067  -2.2180999999999997 
H  3.2899000000000003  -3.2642999999999995  -1.4105999999999996 
H  3.7325000000000004  -1.7692999999999994  -1.7683999999999997 
C  2.3747000000000003  -1.8453  -0.1835 
C  1.2161000000000004  -2.7088  0.22109999999999985 
C  1.3318000000000003  -4.091499999999999  0.4049999999999998 
H  2.16  -4.521399999999999  0.22779999999999978 
C  0.25950000000000006  -4.835399999999999  0.8397000000000001 
H  0.33360000000000056  -5.7749  0.9551000000000001 
C  -0.9365999999999994  -4.1772  1.1055 
H  -1.6952999999999996  -4.6591  1.4115 
C  -1.0028999999999995  -2.8114  0.9166000000000001 
H  -1.8197  -2.3682  1.1155 
H  2.5186  0.19310000000000027  -0.34399999999999986 
