40
unq_CSD-LIXMEK-02-a
N  0.7998000000000003  2.183  0.06009999999999982 
N  2.1354999999999995  -0.2927  0.04319999999999968 
C  0.367  3.1629  0.8839000000000001 
C  0.8354999999999997  4.4478  0.8256000000000001 
C  1.7698999999999998  4.7738  -0.10250000000000004 
C  2.2129000000000003  3.8068999999999997  -0.9586000000000001 
C  1.7560000000000002  2.491  -0.8359000000000001 
C  2.3693999999999997  1.4190999999999998  -1.5953 
C  2.6829  0.20620000000000005  -1.1412 
C  3.6643999999999997  -0.6607000000000001  -1.9849 
C  3.2302  -0.6337  -3.4531 
C  5.0698  -0.06579999999999997  -1.9128 
C  3.6663000000000006  -2.1285  -1.56 
Si  3.0477  -0.4427  1.5344000000000002 
C  4.8725  -0.8217  1.4377999999999997 
C  3.0378999999999996  1.1951  2.438 
C  2.3511999999999995  -1.7766000000000002  2.5975999999999995 
H  -0.27970000000000006  2.9558999999999997  1.5205999999999995 
H  0.5190000000000001  5.0907  1.4178000000000002 
H  2.1003  5.6407  -0.15620000000000012 
H  2.8228  4.0238  -1.6275 
H  2.5648999999999997  1.5951  -2.4881 
H  3.835  -1.1656  -3.9747000000000003 
H  3.2427  0.2712  -3.7738 
H  2.3423  -0.9897  -3.5314 
H  5.3685  -0.061799999999999966  -1.0015 
H  5.0544  0.8332  -2.2503 
H  5.668399999999999  -0.5967  -2.4437 
H  3.9373999999999993  -2.1965  -0.641 
H  4.276699999999999  -2.6215  -2.1123000000000003 
H  2.7813  -2.4915  -1.6582000000000001 
H  5.308699999999999  -0.1527  0.9053999999999998 
H  4.9996  -1.6836000000000002  1.0357999999999996 
H  5.2466  -0.8217  2.3214 
H  3.4021  1.8771  1.8688999999999996 
H  3.569  1.1251000000000002  3.2342999999999997 
H  2.1349  1.4240999999999997  2.6743 
H  1.4075999999999995  -1.6456  2.6973 
H  2.7736  -1.7506  3.4598 
H  2.5145  -2.6295  2.188 
