27
unq_CSD-LIYPEP-02-a
N  0.1955000000000009  1.9071999999999996  0.8338000000000001 
N  1.4398  1.2481999999999989  -0.819 
C  -0.49709999999999965  2.733399999999998  1.835 
H  -0.38370000000000015  3.6904999999999983  1.5692 
C  1.1107999999999993  2.2721999999999998  0.0018000000000002458 
C  1.737400000000001  3.6668000000000003  -0.0038000000000000256 
H  2.6937999999999995  3.595699999999999  -0.20359999999999978 
H  1.6174999999999997  4.0832999999999995  0.8757000000000001 
H  1.301400000000001  4.218500000000001  -0.6869999999999998 
C  -2.0092999999999996  2.4519  1.9466 
H  -2.4348  2.601000000000001  1.0765000000000002 
H  -2.4041999999999994  3.0551999999999975  2.6103000000000005 
H  -2.1483999999999996  1.5226999999999986  2.2236000000000002 
C  0.11739999999999995  2.5633999999999997  3.1951 
H  -0.3281999999999998  3.1485000000000003  3.8319 
H  1.0722000000000005  2.787699999999999  3.1486 
H  0.020899999999999253  1.6271999999999984  3.4786 
C  2.5554000000000006  1.2356999999999996  -1.8109 
H  3.2310999999999996  1.9210999999999991  -1.5357999999999998 
C  2.0695999999999994  1.5783999999999985  -3.1914 
H  1.2017000000000007  1.1506999999999987  -3.3457 
H  2.7171000000000003  1.2453999999999983  -3.8524 
H  1.9834999999999994  2.5466999999999995  -3.2788 
C  3.2028999999999996  -0.016800000000001702  -1.9103999999999999 
H  3.512600000000001  -0.2940000000000005  -1.0235999999999998 
H  3.9711  0.059899999999998954  -2.5147 
H  2.5747  -0.6813000000000002  -2.2609 
