34
unq_CSD-LOZWIJ-02-a
N  1.1901  1.3880000000000008  0.9989 
N  1.7951  -0.5124999999999993  -0.9243 
C  2.763  1.3967  2.9145 
H  3.4259  0.7807000000000004  3.2904 
H  3.2041  2.2328  2.6554 
H  2.0745  1.5853000000000002  3.586 
C  2.1238  0.7683  1.7013 
C  2.6108  -0.5020999999999995  1.3244 
H  2.9231  -1.0884999999999998  2.004 
C  2.6544  -0.9383999999999997  -0.0096 
C  3.7972  -1.8830999999999998  -0.3422 
H  4.3111  -2.0726999999999998  0.4704 
H  3.4356  -2.7194999999999996  -0.7028 
H  4.3824  -1.4660999999999995  -1.0088 
C  1.0836  2.8518  1.1019 
H  1.2842  3.1162  2.0454 
C  2.1152  3.5073999999999996  0.1914 
H  2.0412  4.4821  0.2627 
H  3.0142  3.2273000000000005  0.462 
H  1.9526  3.2344999999999997  -0.7356 
C  -0.3064  3.3341000000000003  0.7597 
H  -0.3429  4.3098  0.8384 
H  -0.5266  3.0712  -0.1583 
H  -0.9527  2.932100000000001  1.378 
C  2.1699  -0.5646999999999993  -2.3414 
H  2.6205  -1.4406999999999996  -2.5165 
C  3.1553  0.5512000000000006  -2.6489 
H  3.4047  0.5152000000000001  -3.596 
H  2.7392  1.4172000000000002  -2.4538 
H  3.9567  0.4422000000000006  -2.0956 
C  0.9603  -0.4582999999999995  -3.2483 
H  1.2498  -0.4972999999999992  -4.1841 
H  0.3482  -1.2013999999999996  -3.065 
H  0.5021  0.39139999999999997  -3.0831 
