21
unq_CSD-LULQOY-02-a
N  -0.03300000000000036  -0.5041999999999998  1.8111999999999995 
N  -1.4294000000000002  1.1743000000000001  0.3262999999999998 
H  0.23309999999999986  -1.3000999999999998  1.9997999999999996 
N  -2.9247  2.3603000000000005  1.4569999999999999 
H  -3.3105  2.7559000000000005  2.1156999999999995 
N  -1.2708000000000002  1.2811000000000003  2.7379999999999995 
N  0.0004999999999997229  -0.04190000000000005  4.065899999999999 
H  0.5164999999999997  -0.7125999999999999  4.1492 
H  -0.06350000000000033  0.5432000000000001  4.570499999999999 
C  -0.4223000000000001  0.24570000000000025  2.813599999999999 
C  -1.8097000000000003  1.5673000000000004  1.5393 
C  -3.3182  2.4182000000000006  0.14919999999999956 
C  -4.4203  3.0010000000000003  -0.4521000000000006 
H  -5.0308  3.5029000000000003  0.03909999999999947 
C  -4.5755  2.8087  -1.8078000000000003 
H  -5.3089  3.1807  -2.2405000000000004 
C  -3.6554  2.0694  -2.5393000000000003 
H  -3.7826000000000004  1.9619999999999997  -3.4536000000000007 
C  -2.5554  1.491  -1.9380000000000006 
H  -1.9452000000000003  0.9925000000000002  -2.4320000000000004 
C  -2.3876000000000004  1.6778  -0.5746000000000002 
