17
unq_CSD-LUPWIF-02-a
N  1.3609999999999998  -1.6197  0.14009999999999856 
N  1.9925000000000002  0.8421000000000003  -0.44920000000000115 
N  1.2033999999999998  -2.9779  0.33699999999999974 
C  2.4103999999999997  -3.5103  0.24399999999999977 
H  2.5836  -4.4199  0.3415999999999997 
C  3.3638999999999997  -2.5915999999999997  -0.008800000000000807 
H  4.2782  -2.7264999999999997  -0.11110000000000042 
C  2.6729  -1.4143  -0.07699999999999996 
C  3.0344  -0.04179999999999984  -0.3794000000000004 
C  4.309900000000001  0.4528000000000003  -0.5731999999999999 
H  5.0303  -0.1317999999999997  -0.5159000000000002 
C  4.5512  1.7660000000000005  -0.8446000000000016 
H  5.417  2.0787  -0.9811000000000014 
C  3.4861999999999997  2.5989  -0.9097000000000008 
H  3.6202  3.5002  -1.0958000000000006 
C  2.2103999999999995  2.1317999999999997  -0.7035 
H  1.4919999999999995  2.7205  -0.7423000000000002 
