61
unq_CSD-LUTVEB-02-a
N  -0.1778  1.1357  -1.6222000000000003 
N  1.6799  -1.0638000000000005  -0.37260000000000026 
C  0.7807  0.9616000000000007  -2.5379000000000005 
C  1.8577  0.08980000000000032  -2.4799000000000007 
H  2.3979  0.13250000000000028  -3.2357000000000005 
C  2.3031  -0.8247999999999998  -1.5554000000000006 
N  0.613  1.7273999999999994  -3.7752000000000003 
C  1.751  2.6213999999999995  -4.0055000000000005 
H  2.5249  2.0945  -4.2603 
H  1.9644  3.0851000000000006  -3.1812000000000005 
C  1.4682  3.6136  -5.0635 
H  2.2455  4.1753  -5.2094000000000005 
H  0.7248  4.18  -4.8017 
C  1.1143  2.8270999999999997  -6.3764 
H  0.8366  3.4536999999999995  -7.063600000000001 
H  1.9  2.3588000000000005  -6.6946 
C  -0.0254  1.8096999999999994  -6.1128 
H  -0.8535  2.2843999999999998  -5.9406 
H  -0.1541  1.2559000000000005  -6.8984000000000005 
C  0.3116  0.9362999999999992  -4.930000000000001 
H  -0.4386  0.3539999999999992  -4.7349000000000006 
H  1.0753  0.37930000000000064  -5.1479 
C  3.5647  -1.5526999999999997  -2.0177000000000005 
C  4.6112  -0.7125000000000004  -1.2812000000000006 
H  5.4867  -1.0573999999999995  -1.4693000000000005 
H  4.4469  -0.7536000000000005  -0.3374000000000006 
H  4.5553  0.19890000000000008  -1.5765000000000002 
C  3.8915  -3.0068  -1.7242000000000002 
H  4.7568  -3.2188999999999997  -2.0845000000000002 
H  3.2294  -3.5717  -2.1266000000000003 
H  3.8983  -3.1476999999999995  -0.7733000000000003 
C  3.9  -1.3612000000000002  -3.5116000000000005 
H  4.7247  -1.810599999999999  -3.7137000000000002 
H  3.9914  -0.4245000000000001  -3.7014000000000005 
H  3.1955  -1.7299000000000007  -4.047700000000001 
Si  -1.4763  2.2897999999999996  -1.8138000000000005 
C  -2.4622  2.2544000000000004  -0.2425000000000006 
H  -1.8882  2.4505999999999997  0.5008999999999997 
H  -2.85  1.3841  -0.12650000000000006 
H  -3.1616  2.9109999999999996  -0.2882000000000007 
C  -2.6621  1.8666999999999998  -3.1935000000000002 
H  -2.1964  1.8872999999999998  -4.033600000000001 
H  -3.3767  2.5075000000000003  -3.2093000000000003 
H  -3.0211  0.9885000000000002  -3.0494000000000003 
C  -0.8704  4.0107  -1.9649000000000005 
H  -0.3539  4.0992999999999995  -2.7699000000000003 
H  -0.3218  4.2242999999999995  -1.2074000000000003 
H  -1.6189  4.612  -1.9983000000000004 
Si  2.1139  -2.1792999999999996  0.8908999999999994 
C  0.8501  -2.0828000000000007  2.2426999999999992 
H  -0.0102  -2.3280000000000003  1.8946999999999994 
H  0.8145  -1.185599999999999  2.5836999999999994 
H  1.0923  -2.684  2.9509999999999996 
C  2.0745  -3.9909999999999997  0.36739999999999995 
H  1.2413  -4.1793  -0.07030000000000047 
H  2.1608  -4.5496  1.1441999999999997 
H  2.8009  -4.1667  -0.23550000000000004 
C  3.7035  -1.7029999999999994  1.7821999999999996 
H  3.6714  -0.7726000000000006  2.0195 
H  4.4537  -1.8597000000000001  1.2056999999999993 
H  3.795  -2.2315000000000005  2.5783999999999994 
