90
unq_CSD-PALVII-02-a
N  -0.024599999999999955  1.842999999999999  -0.652000000000001 
N  0.020199999999999996  0.5357999999999992  1.9802 
C  1.0872  2.4682000000000004  -0.1286000000000005 
C  1.481  2.2067000000000005  1.1670999999999996 
C  0.8402999999999998  1.5239000000000003  2.2706999999999997 
C  -0.8573000000000001  2.419199999999999  -1.6745999999999999 
C  -1.5416  3.618099999999999  -1.421800000000001 
C  -2.2628  4.2084  -2.462300000000001 
C  -2.3167999999999997  3.623499999999999  -3.714500000000001 
C  -1.7177  2.3952  -3.9172000000000002 
C  -0.9971000000000001  1.7512999999999996  -2.9161 
C  -0.3589  0.41190000000000015  -3.2253000000000007 
C  -1.3675  -0.5991  -3.7612000000000005 
C  0.8373000000000002  0.5447999999999995  -4.176200000000001 
C  -1.5829  4.278299999999999  -0.045700000000000074 
C  -1.0751  5.7231  -0.04180000000000028 
C  -2.9942  4.2503  0.5119999999999987 
C  2.0827  3.3181000000000003  -0.9748000000000001 
C  1.5366000000000002  3.9303  -2.2734000000000005 
C  2.6685  4.4812  -0.14559999999999995 
C  3.2199  2.359099999999999  -1.357000000000001 
C  1.2015  2.0949  3.6655999999999995 
C  0.7672000000000001  3.5735  3.6529999999999987 
C  2.7135  2.002299999999999  3.8861999999999988 
C  0.5342999999999998  1.4348999999999998  4.870399999999998 
C  -0.7316  -0.28440000000000065  2.9208999999999996 
C  -0.15650000000000008  -1.5  3.3424999999999994 
C  -0.9166  -2.3124000000000002  4.1837 
C  -2.1835  -1.9580000000000002  4.576399999999998 
C  -2.7317  -0.7726000000000006  4.121599999999999 
C  -2.0384  0.07549999999999901  3.270199999999999 
C  -2.7398  1.3172000000000006  2.7492 
C  -3.1717  2.266099999999999  3.8686999999999987 
C  -3.9656000000000002  0.9075999999999995  1.9436999999999998 
C  1.2278  -1.9708000000000006  2.933 
C  1.139  -3.2670000000000003  2.1069999999999993 
C  2.1471  -2.1839000000000004  4.1357 
H  2.2729  2.5805  1.4027999999999992 
H  -2.6984  5.002  -2.303700000000001 
H  -2.8278  4.035899999999999  -4.401300000000001 
H  -1.7745  2.0026  -4.7522 
H  0.03649999999999998  0.05239999999999956  -2.4052000000000007 
H  -2.1654999999999998  -0.6645000000000003  -3.1549000000000014 
H  -1.6605  -0.32860000000000067  -4.6356 
H  -0.9536  -1.4735000000000005  -3.854400000000001 
H  0.5023  0.9191999999999991  -5.0437 
H  1.2748000000000002  -0.3142000000000005  -4.3558 
H  1.5397  1.1124  -3.8311 
H  -1.0453999999999999  3.786699999999999  0.5329999999999995 
H  -0.1543000000000001  5.793  -0.3916000000000004 
H  -1.0266  6.127  0.8792999999999989 
H  -1.7033  6.172199999999999  -0.5198999999999998 
H  -3.3143000000000002  3.4003000000000005  0.5177999999999994 
H  -3.0359  4.577699999999999  1.4039000000000001 
H  -3.6557000000000004  4.7366  -0.018500000000001293 
H  0.8152000000000001  4.6336  -2.1393000000000004 
H  1.2401000000000002  3.2306  -2.933300000000001 
H  2.3278999999999996  4.3953  -2.6885000000000012 
H  1.9069  5.0436000000000005  0.22979999999999912 
H  3.2520999999999995  4.175  0.5993999999999993 
H  3.2421999999999995  5.027299999999999  -0.7064000000000004 
H  3.7218  2.0387999999999993  -0.5782000000000007 
H  2.8453999999999997  1.5873  -1.8549000000000007 
H  3.8614999999999995  2.7755  -1.9423000000000012 
H  -0.2198  3.6675999999999993  3.4559999999999995 
H  1.2624000000000002  4.0721  3.0129 
H  0.9372  3.9419999999999993  4.563599999999999 
H  3.2234999999999996  2.4684999999999997  3.234399999999999 
H  3.0187  1.0673000000000004  3.9107000000000003 
H  2.9086  2.4324000000000003  4.715200000000001 
H  0.8585  1.8889000000000005  5.661900000000001 
H  0.7918000000000001  0.5363999999999995  4.959999999999999 
H  -0.45910000000000006  1.4880000000000004  4.8224 
H  -0.543  -3.1312000000000006  4.4855 
H  -2.6951  -2.5533  5.136100000000001 
H  -3.6299  -0.5670000000000002  4.367699999999999 
H  -2.1245000000000003  1.7931999999999997  2.173399999999999 
H  -2.4295  2.5119  4.365399999999999 
H  -3.8352000000000004  1.8472999999999997  4.4237 
H  -3.5635000000000003  3.0806999999999993  3.4909 
H  -4.409  1.6757999999999997  1.600999999999999 
H  -3.7306  0.35939999999999994  1.1940999999999988 
H  -4.6539  0.3919000000000006  2.5115999999999996 
H  1.5925999999999998  -1.2947000000000006  2.3645999999999994 
H  0.5186  -3.1655000000000006  1.3922999999999988 
H  0.8049999999999999  -3.9853  2.6281 
H  2.0953999999999997  -3.5339  1.7886999999999986 
H  1.7421  -2.8061000000000007  4.761799999999999 
H  3.0653999999999995  -2.4612000000000007  3.8336999999999986 
H  2.2942  -1.3037  4.645200000000001 
