52
unq_CSD-MARRII-02-a
N  1.4425  1.4204000000000008  0.022299999999999542 
N  1.1909  -0.9727999999999994  1.2777000000000012 
C  -0.7309000000000001  -3.202399999999999  1.0965000000000007 
C  -0.07279999999999998  -3.5724  3.4712000000000014 
C  1.3112000000000004  -4.504999999999999  1.6095999999999986 
C  0.45150000000000023  -3.3112999999999992  2.0471999999999984 
C  1.3296000000000001  -2.0737999999999985  2.065800000000001 
C  2.4391  -1.9059999999999988  2.910400000000001 
C  2.9939  -0.6772999999999989  2.6433000000000018 
C  2.218300000000001  -0.10650000000000048  1.6319 
C  2.3223000000000003  1.1088000000000022  0.9382999999999999 
C  1.6572000000000005  2.605800000000002  -0.7682000000000002 
C  5.2051  2.1149000000000022  -1.1047999999999991 
C  4.085800000000001  1.1949000000000005  -3.1432 
C  3.880000000000001  1.6432000000000002  -1.6992999999999991 
C  2.8077000000000005  2.7104999999999997  -1.5848999999999993 
C  2.9596999999999998  3.8933999999999997  -2.3186 
C  2.0511  4.913700000000002  -2.269399999999999 
C  0.9314  4.786999999999999  -1.4838000000000005 
C  0.7116000000000007  3.641300000000001  -0.7170000000000005 
C  -0.5248999999999997  3.5833000000000013  0.16799999999999926 
C  -0.5194000000000001  4.703099999999999  1.1857999999999986 
C  -1.7931  3.5404000000000018  -0.6192999999999991 
H  -1.3244999999999996  -2.5092  1.3976999999999986 
H  -0.46640000000000015  -3.0165999999999986  0.10159999999999947 
H  -1.2394999999999996  -3.9875999999999987  1.1044 
H  -0.5953999999999997  -2.8368  3.753400000000001 
H  -0.5889999999999995  -4.3911  3.4846999999999984 
H  0.8037999999999998  -3.7218999999999998  4.0466 
H  2.036900000000001  -4.626899999999999  2.2302000000000017 
H  0.8077000000000005  -5.2362  1.541500000000001 
H  1.6694000000000004  -4.3492  0.7071000000000005 
H  2.7528000000000006  -2.4971999999999994  3.4978999999999996 
H  3.7341999999999995  -0.2914999999999992  3.0249000000000006 
H  3.033900000000001  1.7483000000000004  1.1593 
H  5.1348  2.403600000000001  -0.18029999999999902 
H  5.819800000000001  1.4047000000000018  -1.1151 
H  5.6037  2.877100000000002  -1.6089000000000002 
H  4.7021  0.49760000000000204  -3.222899999999999 
H  4.499499999999999  1.9021000000000008  -3.635299999999999 
H  3.24  0.9372000000000007  -3.5633999999999997 
H  3.617800000000001  0.9650999999999996  -1.2739999999999991 
H  3.7120999999999995  3.9719000000000015  -2.8538999999999994 
H  2.2345000000000006  5.700099999999999  -2.7403999999999993 
H  0.2939000000000007  5.468299999999999  -1.4650999999999996 
H  -0.4700999999999995  2.9010999999999996  0.6446000000000005 
H  0.3628  4.9648  1.5206999999999997 
H  -1.0129000000000001  5.504300000000001  0.5935000000000006 
H  -1.0915999999999997  4.5992  1.7665999999999986 
H  -1.9402  4.485400000000002  -0.9031000000000002 
H  -2.5795  3.482400000000002  -0.08200000000000074 
H  -1.7844999999999995  2.8271000000000015  -1.1851000000000003 
