22
unq_CSD-BEDLUS-02-a
N  1.3586999999999998  0.8565  -1.662799999999999 
N  2.0044999999999993  0.006500000000000172  0.9734999999999996 
C  2.5828999999999995  0.4365000000000001  -1.9245999999999999 
C  3.3807  -0.2488999999999999  -0.9764999999999997 
H  4.141900000000001  -0.7070999999999998  -1.3111999999999995 
C  3.1619  -0.3196999999999999  0.39970000000000105 
C  3.237800000000001  0.7185999999999999  -3.2637 
H  2.646299999999999  0.42100000000000026  -3.985199999999999 
H  4.0894  0.23609999999999998  -3.319099999999999 
H  3.4013  1.6807000000000003  -3.3504000000000005 
C  4.3302000000000005  -0.7693999999999999  1.2529000000000003 
H  4.6255999999999995  -0.026000000000000023  1.8199000000000005 
H  5.067800000000001  -1.0529  0.6737000000000002 
H  4.052499999999999  -1.5198  1.8183000000000007 
C  0.7328999999999999  1.7551  -2.6447000000000003 
H  1.3312  2.5095000000000005  -2.8240999999999996 
H  -0.11580000000000013  2.0891  -2.2864000000000004 
H  0.5666000000000002  1.2644000000000002  -3.4770000000000003 
C  1.9828999999999999  0.13070000000000004  2.4381000000000004 
H  2.1355999999999993  -0.7483  2.8428000000000004 
H  1.1102999999999996  0.4742000000000002  2.724400000000001 
H  2.6872  0.7496  2.724400000000001 
