36
unq_CSD-BEVWOQ-02-a
N  -0.9207999999999998  0.12190000000000012  2.1350000000000002 
N  -2.241  0.6988999999999983  0.4175 
N  -2.8781000000000003  1.4431000000000012  2.5771 
H  -3.5500000000000003  1.8920999999999992  2.2384 
C  -0.7883000000000004  -0.5152000000000001  3.3675 
C  -1.8235999999999999  -1.220200000000002  3.9957 
H  -2.6914000000000002  -1.1888000000000005  3.6363 
C  -1.5850999999999997  -1.9747000000000003  5.1487 
H  -2.2905  -2.4291  5.5717 
C  -0.31040000000000045  -2.0451999999999995  5.6607 
H  -0.1504000000000003  -2.549200000000001  6.4384 
C  0.7371999999999996  -1.3847000000000005  5.043699999999999 
H  1.6079999999999997  -1.4551999999999996  5.3919999999999995 
C  0.5051999999999994  -0.6249000000000002  3.9162000000000003 
H  1.2195999999999998  -0.17050000000000054  3.509 
C  -2.0404  0.751100000000001  1.7517 
C  -3.2273  1.5813999999999986  -0.23140000000000027 
H  -3.2296  2.4509000000000007  0.24409999999999998 
C  -2.806  1.8216999999999999  -1.6627 
H  -1.9459999999999997  2.2707000000000015  -1.677 
H  -3.4665000000000004  2.3751999999999995  -2.1064 
H  -2.7332  0.9705000000000013  -2.1255 
C  -4.6364  1.0200999999999993  -0.2107000000000001 
H  -4.665100000000001  0.20279999999999987  -0.7307999999999999 
H  -5.2477  1.6676000000000002  -0.5924 
H  -4.8954  0.8321000000000005  0.7052999999999998 
C  -2.5955000000000004  1.9783000000000008  3.9368000000000003 
H  -1.7317999999999998  1.5996999999999986  4.2438 
C  -3.6675  1.5527000000000015  4.9069 
H  -4.5234000000000005  1.9077999999999982  4.6190999999999995 
H  -3.458  1.8948  5.7911 
H  -3.7118  0.5839999999999996  4.937099999999999 
C  -2.4694000000000003  3.482199999999999  3.905 
H  -1.8780999999999999  3.7407000000000004  3.1813999999999996 
H  -2.1048999999999998  3.7929999999999993  4.7479 
H  -3.3436000000000003  3.8765  3.7635 
