48
unq_CSD-BEXLUO-02-a
N  1.7702  1.0983  0.3891999999999989 
N  -0.1583000000000001  0.6641000000000004  -2.017100000000001 
C  2.4963  1.5669000000000004  -0.6338000000000008 
C  0.8451  1.3049999999999997  -2.5997000000000003 
C  -4.1922999999999995  -0.24209999999999976  -3.3602000000000007 
H  -4.6056  -0.2610999999999999  -2.4610000000000003 
H  -4.899  -0.4344999999999999  -4.026400000000001 
C  2.2891  1.3401999999999994  1.7524999999999995 
H  3.2861  1.2675999999999998  1.7233999999999998 
C  1.9265000000000003  2.7607  2.213899999999999 
H  2.3160000000000003  3.4179999999999993  1.5841999999999992 
H  0.9424999999999999  2.868500000000001  2.1968999999999994 
C  -2.4381  1.4335000000000004  -2.6852 
H  -2.0579  2.3231  -2.8959 
H  -2.7588  1.4501000000000008  -1.7485999999999997 
C  0.7679  1.7425999999999995  -4.0548 
H  0.7757000000000001  0.9525000000000006  -4.6345 
H  -0.05929999999999991  2.2475000000000005  -4.2005 
H  1.5387  2.3094  -4.2667 
C  -3.6113  1.1435999999999993  -3.6226000000000003 
H  -3.3037  1.199300000000001  -4.562 
H  -4.3156  1.8264999999999993  -3.4898000000000007 
C  2.0731999999999995  1.6331000000000007  -1.9688999999999997 
H  2.7358  1.9603000000000002  -2.5659 
C  3.921  2.0630000000000006  -0.4121000000000006 
H  3.9132000000000002  2.8025  0.23179999999999978 
H  4.4711  1.3312000000000008  -0.06280000000000108 
H  4.2948  2.3756000000000004  -1.2629000000000001 
C  -1.3543  0.36519999999999975  -2.8357 
H  -1.0710000000000002  0.3528000000000002  -3.7947000000000006 
C  1.7683  0.3094999999999999  2.7426999999999992 
H  0.7784  0.3125  2.728999999999999 
H  2.0749999999999997  -0.5914000000000001  2.4701000000000004 
C  2.4415999999999998  3.0482999999999993  3.626999999999999 
H  3.4313999999999996  3.0252  3.629199999999999 
H  2.1546999999999996  3.9537999999999993  3.9055 
C  -3.1066000000000003  -1.3186999999999998  -3.4447 
H  -3.4951  -2.1963999999999997  -3.2019 
H  -2.7748  -1.3783000000000003  -4.3754 
C  -1.9362000000000001  -1.0042999999999997  -2.5072 
H  -1.2351  -1.6962000000000002  -2.6067 
H  -2.2498  -1.016  -1.568200000000001 
C  2.2582  0.6039000000000003  4.167999999999999 
H  1.8470999999999997  -0.04359999999999964  4.7941 
H  3.2399  0.48329999999999984  4.2066 
C  1.9080999999999997  2.0222999999999995  4.610799999999999 
H  2.2952999999999997  2.1923999999999992  5.5061 
H  0.9247000000000001  2.1122999999999994  4.6797 
