50
unq_CSD-BIDGUS-02-a
N  -0.1341  0.06840000000000002  -2.0852 
N  -1.6278000000000001  -1.1421000000000001  -0.3942999999999999 
N  0.525  0.7179000000000002  -2.965 
C  -1.0459999999999998  -0.8554999999999999  -2.5606 
N  -1.8325  -1.4475  -1.6522999999999999 
C  1.2578  1.8506999999999998  -2.4672 
C  0.5916  2.9683  -1.9563000000000001 
C  1.3611  4.067  -1.6276000000000002 
H  0.9369000000000001  4.8371  -1.2941000000000003 
C  2.7184999999999997  4.069  -1.7707000000000002 
H  3.2161999999999997  4.8231  -1.5082 
C  3.3629  2.9683  -2.3004 
H  4.2975  2.9772  -2.4009 
C  2.6414  1.8544999999999998  -2.6824000000000003 
C  -0.9070999999999999  3.0187  -1.8262 
H  -1.1781000000000001  2.5538  -1.0186000000000002 
H  -1.3144999999999998  2.5927  -2.596 
H  -1.1965  3.9438000000000004  -1.7778 
C  3.3148  0.6505999999999998  -3.2677 
H  4.2443  0.8582999999999998  -3.4534000000000002 
H  2.8689999999999998  0.3992  -4.0919 
H  3.2679  -0.08499999999999996  -2.6374 
C  -2.5597000000000003  -1.7414  0.5079999999999996 
C  -2.6245000000000003  -3.1154  0.6770999999999998 
C  -3.5404999999999998  -3.5923  1.6195 
H  -3.6197  -4.520099999999999  1.7471999999999999 
C  -4.3254  -2.7561999999999998  2.3608999999999996 
H  -4.9195  -3.1101  2.9971 
C  -4.2451  -1.4183  2.1788000000000003 
H  -4.7854  -0.8501000000000001  2.6968 
C  -3.3829000000000002  -0.8706  1.2422999999999997 
C  -1.7797  -4.073  -0.10809999999999986 
H  -1.9246000000000003  -3.9297  -1.0564 
H  -2.0238  -4.984  0.12250000000000005 
H  -0.8446999999999999  -3.9267000000000003  0.10239999999999982 
C  -3.3703000000000003  0.6099999999999999  0.9715000000000003 
H  -2.5056000000000003  0.9756999999999998  1.2151 
H  -4.0632  1.0407000000000002  1.4964999999999997 
H  -3.5341000000000005  0.7675000000000001  0.027899999999999814 
C  -1.3052000000000001  -1.1608  -3.9843 
C  -0.2895  -1.3354  -4.922 
H  0.6067  -1.1781  -4.6855 
C  -0.6141  -1.7443  -6.208600000000001 
H  0.07050000000000001  -1.869  -6.84 
C  -1.9193000000000002  -1.968  -6.5728 
H  -2.1247000000000003  -2.2535  -7.4443 
C  -2.9216  -1.7743  -5.654 
H  -3.8175999999999997  -1.9144  -5.9023 
C  -2.6201  -1.3749  -4.3733 
H  -3.3134  -1.2454  -3.7525 
