44
unq_CSD-BIDHED-02-a
N  -1.0471  0.5025999999999999  -1.6423999999999999 
N  0.007199999999999984  -1.8668  -0.7927999999999997 
N  -1.7693  -0.2443  -2.4074 
C  -1.7613  -1.5877000000000001  -2.2608 
N  -0.8729  -2.3509  -1.6215000000000002 
C  -0.9964  1.8779  -2.0884 
C  -1.9574  2.7808  -1.6402999999999999 
C  -1.7818  4.1196  -1.9794 
H  -2.4119  4.7565  -1.6915 
C  -0.7015  4.5257  -2.7284 
H  -0.5876  5.4376999999999995  -2.928 
C  0.21470000000000006  3.6048  -3.1882 
H  0.9360999999999999  3.8924000000000003  -3.7164 
C  0.08529999999999999  2.2584  -2.8808 
C  -3.118  2.3393  -0.7975000000000003 
H  -3.6746  3.106  -0.5862999999999996 
H  -2.7885999999999997  1.9434999999999998  0.023600000000000065 
H  -3.6407  1.684  -1.2848000000000002 
C  1.0732  1.2499  -3.3971999999999998 
H  1.3957  0.7067000000000001  -2.661 
H  1.8206999999999998  1.7115  -3.8091 
H  0.6419999999999999  0.6816  -4.0539000000000005 
C  0.9305999999999999  -2.8788  -0.36209999999999987 
C  0.552  -4.2081  -0.24990000000000023 
H  -0.3182  -4.4723  -0.4866999999999999 
C  1.4622  -5.1447  0.21260000000000012 
H  1.2051  -6.0451  0.29469999999999974 
C  2.7448  -4.7615  0.5523999999999996 
H  3.3576  -5.3982  0.8715000000000002 
C  3.1213  -3.4482  0.42269999999999985 
H  3.9949000000000003  -3.1887  0.6543999999999999 
C  2.2284  -2.5013  -0.044800000000000395 
H  2.4989000000000003  -1.6068  -0.14789999999999992 
C  -2.7981  -2.3204000000000002  -3.0189 
C  -3.9614  -1.6873  -3.4269 
H  -4.0885  -0.7758  -3.2351 
C  -4.9376  -2.3874  -4.1154 
H  -5.7208  -1.9462000000000002  -4.3914 
C  -4.773  -3.7237  -4.3986 
H  -5.4369  -4.194599999999999  -4.8686 
C  -3.6279  -4.3653  -3.9873000000000003 
H  -3.512  -5.2805  -4.1714 
C  -2.6441999999999997  -3.6715  -3.3045999999999998 
H  -1.8632  -4.1190999999999995  -3.0317 
