25
unq_CSD-BIVBOZ-02-a
N  -1.0607  -1.2812999999999999  1.2738999999999994 
N  -1.8231000000000002  0.6254000000000008  0.8767999999999994 
N  -2.0625  -0.4814999999999996  1.5312000000000001 
C  -1.0967  -2.5489999999999995  1.9121000000000006 
C  -2.1941  -3.0046  2.642899999999999 
H  -2.9647  -2.4892000000000003  2.7060999999999993 
C  -2.1226000000000003  -4.235199999999999  3.2737 
H  -2.8504  -4.5402000000000005  3.7647999999999993 
C  -0.988  -5.0184  3.1869999999999994 
H  -0.9436  -5.8306000000000004  3.6354000000000006 
C  0.0798000000000001  -4.5815  2.4282000000000004 
H  0.8355000000000001  -5.1174  2.3444000000000003 
C  0.033500000000000085  -3.3508999999999993  1.7899999999999991 
H  0.7563  -3.0623000000000005  1.2827000000000002 
C  -2.7824  1.6375000000000002  1.0518 
C  -3.9160000000000004  1.4973  1.8444000000000003 
H  -4.0626999999999995  0.7058  2.307599999999999 
C  -4.8177  2.5300000000000002  1.9428999999999998 
H  -5.5792  2.4208000000000003  2.4664 
C  -4.6236999999999995  3.6947  1.2973999999999997 
H  -5.2347  4.3893  1.3958999999999993 
C  -3.5182  3.8575000000000004  0.49160000000000004 
H  -3.3935  4.655200000000001  0.03279999999999994 
C  -2.5985  2.8413000000000004  0.3591999999999995 
H  -1.8551000000000002  2.9547000000000003  -0.18929999999999936 
