31
unq_CSD-BOBDEB-02-a
N  -0.6911  -1.9323999999999995  -0.3612000000000002 
N  -1.554  -0.3529  -1.1974 
N  -1.6841000000000002  -1.6411999999999995  -1.1679999999999993 
C  -0.3645  -3.3293  -0.15429999999999922 
C  -0.5267  -4.2499  -1.1386000000000003 
C  -0.13779999999999998  -5.5924  -0.9573999999999998 
C  0.40010000000000007  -5.967599999999999  0.18240000000000123 
C  0.6511  -5.088999999999999  1.2133000000000003 
C  0.26430000000000003  -3.6822  1.0259 
C  -2.6202  0.2987000000000002  -2.0801 
C  -3.7174  -0.4737999999999989  -2.523299999999999 
C  -4.7392  0.16790000000000127  -3.3263999999999996 
C  -4.6361  1.498099999999999  -3.6213999999999995 
C  -3.5208  2.1915999999999993  -3.214999999999999 
C  -2.5114  1.5648  -2.4179999999999993 
C  -5.7256  2.176800000000002  -4.464999999999999 
C  0.8922999999999999  -7.4681  0.4100999999999999 
H  -0.911  -3.9857999999999993  -1.9661999999999988 
H  -0.26439999999999997  -6.2242999999999995  -1.654 
H  1.0569  -5.3850999999999996  2.020100000000001 
H  0.44329999999999997  -3.0330999999999992  1.6956000000000007 
H  -3.7837  -1.3943999999999992  -2.299199999999999 
H  -5.4768  -0.33809999999999896  -3.6483999999999996 
H  -3.4159  3.0998  -3.4720999999999993 
H  -1.7607  2.068199999999999  -2.1266 
H  1.2407  -7.776599999999999  -0.4186999999999994 
H  0.30140000000000006  -8.1444  0.7675999999999998 
H  1.607  -7.319999999999999  1.0174000000000003 
H  -5.6043  3.0678  -4.770999999999999 
H  -6.3738  2.1669  -3.7670999999999992 
H  -6.0245  1.6338999999999988  -5.183599999999999 
