38
unq_CSD-BUQYAO-02-b
N  -0.8188  -2.107800000000001  -0.786900000000001 
N  0.8186999999999998  -2.107800000000001  0.7868999999999993 
C  0.0  -2.7548000000000012  0.0 
H  0.0  -3.684700000000001  0.0 
C  -1.7794999999999999  -2.820400000000001  -1.6287000000000003 
H  -1.5365  -3.7691999999999997  -1.631400000000001 
C  -3.1618  -2.6997  -1.0825000000000014 
H  -3.3683  -1.7607  -0.9529000000000014 
H  -3.1963  -3.1334  -0.2151999999999994 
C  -4.2242999999999995  -3.3245000000000005  -1.9959000000000007 
H  -4.1051  -4.2856000000000005  -2.015600000000001 
H  -5.1048  -3.1388999999999996  -1.6336000000000013 
C  -4.1422  -2.786100000000001  -3.398900000000001 
H  -4.7881  -3.24  -3.9610000000000003 
H  -4.3546  -1.8397000000000006  -3.396700000000001 
C  -2.7626999999999997  -2.99  -3.945400000000001 
H  -2.7121  -2.6189  -4.8393000000000015 
H  -2.5765000000000002  -3.9419000000000004  -4.004900000000001 
C  -1.713  -2.317500000000001  -3.046100000000001 
H  -0.8279000000000001  -2.4884000000000004  -3.4033000000000015 
H  -1.8554  -1.3564000000000007  -3.0520000000000014 
C  1.7793999999999999  -2.820400000000001  1.6287999999999982 
H  1.5364000000000004  -3.7691999999999997  1.6313999999999993 
C  3.1618000000000004  -2.6997  1.0824999999999996 
H  3.3682  -1.7607  0.9528999999999996 
H  3.1962  -3.1334  0.2151999999999994 
C  4.2242  -3.3245000000000005  1.995899999999999 
H  4.1051  -4.2856000000000005  2.015599999999999 
H  5.1047  -3.1388999999999996  1.6335999999999977 
C  4.1421  -2.786100000000001  3.3988999999999976 
H  4.787999999999999  -3.24  3.9609999999999985 
H  4.3545  -1.8397000000000006  3.396699999999999 
C  2.7626  -2.99  3.9453999999999994 
H  2.7119999999999997  -2.6189  4.839299999999998 
H  2.5764000000000005  -3.9419000000000004  4.004899999999999 
C  1.7129000000000003  -2.317500000000001  3.046099999999999 
H  0.8277999999999999  -2.4884000000000004  3.403299999999998 
H  1.8552999999999997  -1.3564000000000007  3.0519999999999996 
