43
unq_CSD-BUZXUS-02-b
N  -0.10739999999999972  -1.982099999999999  0.4106999999999994 
N  -0.4625999999999999  0.07910000000000039  2.0127999999999995 
N  0.5131000000000001  -2.5073999999999996  1.4251999999999994 
N  0.22640000000000038  -0.6186999999999987  2.8731999999999998 
N  2.3832  -1.5500999999999987  4.3068 
C  0.8578000000000001  -1.7348999999999997  2.4674000000000005 
C  -0.7485999999999999  -2.9536999999999995  -0.4253 
C  -1.7043999999999997  -2.5176  -1.3267000000000007 
H  -1.9364  -1.597199999999999  -1.3702000000000005 
C  -2.3215  -3.436399999999999  -2.1660000000000004 
H  -2.9705999999999997  -3.1323999999999996  -2.7887000000000004 
C  -2.0126999999999997  -4.7863999999999995  -2.1183000000000005 
C  -1.0685999999999998  -5.200399999999999  -1.197 
H  -0.8465999999999998  -6.123499999999999  -1.1434000000000006 
C  -0.4379999999999997  -4.3061  -0.3498999999999999 
H  0.20350000000000001  -4.613599999999999  0.2793000000000001 
C  -2.679  -5.7810999999999995  -3.0319000000000003 
H  -2.4225999999999996  -6.689399999999999  -2.7680000000000002 
H  -2.395  -5.616899999999999  -3.9555000000000002 
H  -3.6515999999999997  -5.6838999999999995  -2.9669000000000003 
C  1.7912000000000003  -2.3583999999999996  3.427599999999999 
C  2.0755000000000003  -3.7009999999999996  3.3921 
H  1.6666000000000003  -4.259799999999999  2.7413 
C  2.9532000000000003  -4.2277  4.3024 
H  3.1591  -5.156199999999999  4.2854 
C  3.5301000000000005  -3.4118999999999993  5.234799999999999 
H  4.122300000000001  -3.7561999999999998  5.893399999999999 
C  3.2273  -2.1060999999999996  5.1849 
H  3.6424  -1.5332999999999988  5.8191 
C  -1.3474999999999997  1.0152999999999999  2.6038000000000006 
C  -1.1328999999999998  1.5396  3.878799999999999 
H  -0.41739999999999977  1.2172999999999998  4.415 
C  -1.9663999999999997  2.5244999999999997  4.3534 
H  -1.8209999999999997  2.8688000000000002  5.2266 
C  -3.0159  3.0292000000000012  3.5927999999999995 
C  -3.2304999999999997  2.470600000000001  2.3442999999999996 
H  -3.9509999999999996  2.7883000000000013  1.8130999999999995 
C  -2.4244  1.4611  1.8508999999999993 
H  -2.6066  1.0776000000000003  1.0012999999999996 
C  -3.8909  4.139000000000001  4.108299999999999 
H  -3.7539999999999996  4.241100000000001  5.0729 
H  -4.83  3.923  3.9317 
H  -3.6574999999999998  4.9765  3.654799999999999 
