50
unq_CSD-PEHBAF-02-a
N  0.7317  0.3490000000000002  -2.0342000000000002 
N  2.1928  -0.07629999999999981  -0.32310000000000016 
Si  0.14590000000000014  0.6631  -3.6238 
Si  3.6356  -0.5457000000000001  0.5073999999999996 
C  1.9875000000000003  0.15850000000000009  -1.6154000000000002 
C  -0.1359999999999999  -0.9127999999999998  -4.5415 
C  -1.4775  1.5258000000000003  -3.4022 
C  1.221  1.7476000000000003  -4.700200000000001 
C  3.1483999999999996  0.21309999999999985  -2.5717000000000003 
C  3.4196999999999997  -0.8287  -3.4337 
C  4.4598  -0.7446999999999999  -4.3357 
C  5.2692  0.3860999999999999  -4.42 
C  4.9782  1.4302000000000001  -3.5395000000000003 
C  3.9489  1.3482000000000003  -2.6446 
C  6.369700000000001  0.4887999999999999  -5.402100000000001 
C  6.2754  -0.1177999999999999  -6.6529 
C  7.2992  -0.010600000000000165  -7.5735 
C  8.4373  0.6836000000000002  -7.2647 
C  8.552399999999999  1.2972000000000001  -6.0411 
C  7.5308  1.1821000000000002  -5.1019000000000005 
C  4.8328  0.8472  0.7746999999999997 
C  3.0915  -1.1427  2.1655999999999995 
C  4.5542  -1.9383  -0.3174000000000001 
H  -0.6860999999999999  -1.498  -4.014 
H  -0.5773999999999999  -0.7240000000000002  -5.3735 
H  0.7077  -1.3377  -4.7158999999999995 
H  -2.053  0.9915000000000003  -2.8504 
H  -1.3295  2.3766999999999996  -2.9805 
H  -1.8878  1.6611000000000002  -4.2585 
H  2.0717999999999996  1.3251  -4.836 
H  0.7908  1.8810000000000002  -5.549300000000001 
H  1.3492000000000002  2.5968999999999998  -4.2699 
H  2.8758  -1.619  -3.4065000000000003 
H  4.634  -1.486  -4.918900000000001 
H  5.5178  2.2237999999999998  -3.5638 
H  3.7767  2.0868  -2.0571 
H  5.4866  -0.6149999999999998  -6.8802 
H  7.2138  -0.4253  -8.434000000000001 
H  9.1528  0.7446999999999999  -7.902200000000001 
H  9.339099999999998  1.8074000000000003  -5.8324 
H  7.632700000000001  1.5852000000000004  -4.237 
H  4.3791  1.5804  1.1993 
H  5.5532  0.5499999999999998  1.3365 
H  5.184  1.1359000000000004  -0.07010000000000005 
H  2.4706  -1.8673  2.0584 
H  3.8528000000000002  -1.4461  2.6644999999999994 
H  2.6642  -0.42300000000000004  2.6358999999999995 
H  3.9556000000000004  -2.6724  -0.46609999999999996 
H  4.9066  -1.6371  -1.1579000000000002 
H  5.2758  -2.223  0.24869999999999992 
