31
unq_CSD-CABVOS-02-a
N  1.5017999999999994  0.3221999999999996  -1.0511999999999997 
N  -0.43100000000000005  1.8002000000000002  -0.08430000000000071 
H  2.1009  -0.4025000000000003  -1.1996000000000002 
N  1.2244000000000002  2.6078  -1.5853000000000002 
H  -1.2943000000000002  2.0796  0.2905999999999995 
N  7.685299999999999  1.9077000000000002  -5.257 
N  -2.6133  9.0017  -0.9848999999999997 
C  1.8735  1.4452999999999996  -1.6258999999999997 
C  3.1587000000000005  1.4917999999999996  -2.4228000000000005 
C  4.173799999999999  0.5695999999999994  -2.2508 
H  4.0637  -0.1405000000000003  -1.6302000000000003 
C  5.3463  0.6691000000000003  -2.973 
H  6.038899999999999  0.031299999999999883  -2.848 
C  5.509199999999999  1.7051999999999996  -3.8832000000000004 
C  4.5125  2.6629999999999994  -4.0488 
H  4.6339999999999995  3.385  -4.6534 
C  3.345999999999999  2.5461  -3.3213 
H  2.6592000000000002  3.1928  -3.4324000000000003 
C  0.12150000000000016  2.7398  -0.8140000000000001 
C  -0.46170000000000044  4.1093  -0.8310999999999993 
C  -0.5499  4.789000000000001  -2.0500000000000007 
H  -0.2320000000000002  4.3798  -2.8470000000000004 
C  -1.1029  6.060199999999999  -2.0938 
H  -1.2088  6.5096  -2.9238999999999997 
C  -1.5022000000000002  6.669999999999999  -0.9016000000000002 
C  -1.3880000000000003  6.005199999999999  0.3056000000000001 
H  -1.6585  6.432899999999999  1.1089000000000002 
C  -0.8843000000000005  4.7299999999999995  0.3451000000000004 
H  -0.8233000000000006  4.2688  1.1740999999999993 
C  6.750900000000001  1.8087999999999997  -4.6449 
C  -2.1007000000000002  7.987900000000001  -0.9486000000000008 
