33
unq_CSD-CEXJIZ-02-a
N  -1.6049000000000007  0.1408  -1.1045999999999996 
N  -0.523299999999999  1.5234  1.0953 
C  -1.9445999999999977  -0.677  -2.1079000000000008 
H  -1.4054000000000002  -1.3903  -2.427900000000001 
C  -3.2256  -0.3309  -2.631400000000001 
H  -3.6844  -0.7631  -3.3422 
C  -3.6622999999999983  0.746  -1.9102999999999994 
H  -4.481999999999999  1.2105  -2.0298 
C  -2.6602999999999994  1.0399  -0.9459999999999997 
C  -2.663899999999998  2.0697  -0.000700000000000145 
C  -1.6563999999999979  2.3243  0.9429999999999996 
C  -1.5906999999999982  3.3978  1.8794000000000004 
H  -2.2333999999999996  4.0877  1.9914000000000005 
C  -0.4244999999999983  3.2471  2.5871999999999993 
H  -0.10129999999999839  3.8113  3.2788000000000004 
C  0.2004000000000019  2.0822  2.0814000000000004 
H  1.0268000000000015  1.739  2.3970000000000002 
C  -3.8491999999999997  3.0179  -0.0037000000000002586 
C  -3.853999999999999  4.1447  -0.7823000000000011 
C  -2.8613999999999997  4.478  -1.6125000000000007 
H  -2.0890999999999984  3.9298  -1.6552000000000007 
C  -2.9360999999999997  5.6118  -2.4191000000000003 
H  -2.229599999999998  5.8267  -3.0177999999999994 
C  -4.074300000000001  6.4385  -2.3321000000000005 
H  -4.142699999999998  7.2192  -2.8703000000000003 
C  -5.087199999999999  6.1008  -1.4575999999999993 
H  -5.8582  6.6556  -1.389800000000001 
C  -4.997299999999999  5.0109  -0.7100000000000009 
C  -6.025399999999998  3.6951  0.7896000000000001 
H  -6.779999999999998  3.5241  1.3397000000000006 
C  -4.949199999999998  2.7258  0.8368000000000002 
H  -4.979599999999998  1.9539  1.3897999999999993 
N  -6.0596  4.7719  0.06709999999999994 
