34
unq_CSD-MERCOB-02-a
N  0.2939000000000007  -0.7568999999999999  -1.9744000000000002 
N  -1.2070999999999996  1.2221000000000002  -1.0393 
C  1.1224000000000007  -1.6848  -2.4031000000000002 
C  1.245  -2.026  -3.7491000000000003 
C  0.4648000000000003  -1.4074  -4.6722 
C  -0.45009999999999994  -0.39280000000000026  -4.2706 
C  -1.2887999999999993  0.3125  -5.1454 
C  -2.1033999999999997  1.2961999999999998  -4.6491 
C  -2.1266999999999996  1.6249000000000002  -3.2934 
C  -1.3083  0.9698000000000002  -2.3786 
C  -0.47799999999999976  -0.0823999999999998  -2.8911 
C  -1.9371999999999998  2.3531000000000004  -0.5558000000000001 
C  -1.3891999999999998  3.6244000000000005  -0.6004 
C  -2.0959999999999996  4.7429  -0.18920000000000003 
C  -3.3879999999999995  4.5568  0.3131999999999999 
C  -3.9509  3.3015  0.3821999999999999 
C  -3.2179999999999995  2.2104  -0.05679999999999996 
C  -1.5135999999999998  6.129499999999999  -0.2924 
H  -0.8197999999999999  6.2436  0.38929999999999976 
H  -2.2222999999999997  6.792599999999999  -0.15139999999999998 
H  -1.1216999999999997  6.253900000000001  -1.1807 
C  -5.3748  3.0994  0.8604999999999998 
H  -5.547599999999999  3.6849  1.6272 
H  -5.5001999999999995  2.1658999999999997  1.1289999999999998 
H  -5.9971  3.3186  0.13629999999999987 
H  1.5348000000000006  -2.0545  -1.8199 
H  1.8135000000000003  -2.5453  -3.9751000000000003 
H  0.5224000000000002  -1.6551  -5.6243 
H  -1.3445999999999998  0.19380000000000042  -5.9294 
H  -2.6264  1.7572999999999999  -5.211 
H  -2.6077999999999997  2.2823  -3.0056000000000003 
H  -0.7314999999999996  3.6975000000000007  -0.9297 
H  -3.9082  5.1925  0.6828999999999998 
H  -3.5831  1.4947999999999997  -0.06259999999999999 
