60
unq_CSD-PEMKUQ-02-a
N  0.8493000000000002  0.5809000000000002  -1.7649000000000004 
N  1.4084  -1.5012999999999996  0.19849999999999968 
C  2.4245  0.5211999999999999  -3.6607 
H  1.7411999999999999  0.4105000000000003  -4.3264 
H  3.2054  0.025700000000000056  -3.9181000000000004 
H  2.6465000000000005  1.4521000000000002  -3.5823000000000005 
C  1.9206  0.013000000000000345  -2.334 
C  2.6394  -1.0526999999999997  -1.8014000000000006 
H  3.3808000000000007  -1.3202999999999996  -2.2954000000000003 
C  2.4087000000000005  -1.7771  -0.6339999999999999 
C  3.3504000000000005  -2.915  -0.34280000000000044 
H  3.7279  -2.8024999999999998  0.5329999999999999 
H  4.0534  -2.9235999999999995  -0.9966000000000004 
H  2.8697  -3.7451999999999996  -0.37970000000000015 
C  0.2825  1.6692000000000005  -2.5400000000000005 
C  0.7564  2.9789  -2.3368000000000007 
C  0.23930000000000007  3.9877  -3.1489 
H  0.5296000000000001  4.863199999999999  -3.0261 
C  -0.6864999999999999  3.7208  -4.122300000000001 
H  -1.0015  4.4094  -4.6637 
C  -1.1521  2.4402000000000004  -4.3012 
H  -1.7834999999999999  2.2726  -4.964 
C  -0.6968  1.3914000000000004  -3.5116 
C  1.8300000000000003  3.2601  -1.3220000000000005 
H  2.6928  3.0945000000000005  -1.7333000000000003 
H  1.7313000000000003  2.6337000000000006  -0.5882999999999998 
C  1.8314000000000001  4.665799999999999  -0.7569000000000004 
H  0.9364000000000001  4.912100000000001  -0.5114000000000005 
H  2.1628  5.2766  -1.4182000000000001 
H  2.3959  4.697699999999999  0.01969999999999983 
C  -1.2247999999999999  -0.0035999999999996035  -3.7243 
H  -0.9367999999999999  -0.5573999999999999  -2.9817000000000005 
H  -0.8236999999999999  -0.3646999999999996  -4.5291 
C  -2.7365  -0.11319999999999997  -3.8471000000000006 
H  -3.1477  0.21440000000000037  -3.0439000000000003 
H  -2.9805  -1.0316999999999998  -3.9802000000000004 
H  -3.0347999999999997  0.4094000000000002  -4.595599999999999 
C  1.2726  -2.3579  1.3495 
C  1.9179000000000002  -2.013  2.5408999999999997 
C  1.6845  -2.8068  3.6630999999999996 
H  2.1041  -2.5942999999999996  4.464799999999999 
C  0.8562000000000001  -3.8842999999999996  3.6113 
H  0.7054000000000002  -4.388  4.3776 
C  0.24060000000000015  -4.234999999999999  2.4294 
H  -0.3152999999999999  -4.9802  2.4028 
C  0.4427000000000001  -3.4802999999999997  1.2763999999999998 
C  2.8459000000000003  -0.8226999999999998  2.6319999999999997 
H  3.6098  -1.0707  3.1763999999999997 
H  3.1753  -0.6220999999999997  1.7414999999999998 
C  2.2456000000000005  0.40370000000000017  3.1955999999999998 
H  1.5315  0.7006999999999999  2.6275999999999997 
H  2.9145000000000003  1.0894  3.2548 
H  1.9007000000000003  0.21690000000000031  4.0728 
C  -0.24019999999999997  -3.8937999999999997  -0.00550000000000006 
H  0.08910000000000018  -3.3299  -0.7229000000000005 
H  0.019300000000000095  -4.805199999999999  -0.2096 
C  -1.7170999999999998  -3.8205  0.004899999999999682 
H  -2.0526  -4.2341999999999995  0.8036999999999996 
H  -2.0655  -4.279599999999999  -0.7629000000000006 
H  -1.9923  -2.9006  -0.01880000000000015 
