13
unq_CSD-MIQZIW-02-a
N  -0.21170000000000044  0.5494  2.1186999999999996 
N  2.1729000000000003  -0.149  0.7531000000000008 
N  4.013400000000001  0.2239  1.8214999999999995 
H  4.5672999999999995  0.4478  2.4410999999999996 
N  2.0215999999999994  0.7135  2.995399999999999 
H  2.4827999999999992  1.0246  3.6510000000000007 
N  -1.2630999999999997  0.7108  3.9983999999999993 
N  0.0508999999999995  0.7925  4.3008999999999995 
N  4.3408999999999995  -0.2486  0.5999000000000008 
N  -1.4278000000000004  0.5638  2.7219000000000007 
N  3.2433999999999994  -0.4752  -0.02719999999999967 
C  0.6529000000000007  0.6861  3.1248999999999993 
C  2.685599999999999  0.2829  1.9028 
