31
unq_CSD-MPTFNI-02-a
N  1.5499  1.0249  -0.2032 
N  0.3511  -0.5799  -1.7347 
C  0.6179  4.4558  0.8048 
C  0.5351  3.1635  0.2813 
C  3.9669  -1.1726  -1.8753 
C  2.6103  -0.5565  -1.4768 
C  1.6716  2.3492  0.2969 
C  2.8648  2.8181  0.797 
C  2.9286  4.1088  1.3284 
C  1.8142  4.9357  1.3362 
H  -0.2561  5.0902  0.797 
H  -0.3958  2.7914  -0.1328 
H  4.6292  -0.3791  -2.2816 
H  3.8042  -1.9465  -2.6489 
H  4.4477  -1.6274  -0.9845 
H  3.7558  2.1872  0.7892 
H  3.8641  4.4702  1.7503 
H  1.8626  5.9403  1.7503 
N  2.6737  0.5364  -0.6954 
N  1.5403  -0.9804  -2.141 
C  -0.6844  -0.842  -2.688 
C  -1.8059  -0.0113  -2.6567 
C  -0.6026  -1.893  -3.5787 
C  -2.8688  -0.3242  -3.5006 
H  -1.8485  0.8508  -2.0003 
C  -1.6705  -2.1611  -4.3836 
H  0.3008  -2.494  -3.6412 
C  -2.8364  -1.3802  -4.3289 
H  -3.7578  0.3049  -3.485 
H  -1.622  -2.9968  -5.079 
H  -3.6952  -1.6272  -4.9462 
