18
unq_CSD-MUDMAA-02-a
N  1.771  -0.813  -0.09909999999999997 
N  -0.24680000000000002  -1.2153  1.6250999999999998 
C  2.9299  -0.7496  -0.7987000000000002 
H  3.0831999999999997  -0.18330000000000002  -1.5448999999999984 
C  3.8588  -1.6282  -0.2701999999999991 
H  4.743200000000001  -1.7733  -0.5843999999999987 
C  3.2456  -2.2612  0.8109999999999999 
H  3.6321999999999997  -2.9182  1.3793000000000006 
C  1.9565000000000001  -1.7395  0.8967000000000027 
C  0.8734  -1.9563000000000001  1.8384999999999998 
C  0.9319  -2.8324000000000003  2.9231000000000016 
H  1.7107999999999999  -3.3558  3.0732999999999997 
C  -0.1462  -2.9355  3.7745999999999995 
H  -0.1149  -3.533  4.511800000000001 
C  -1.2762  -2.1664  3.5531000000000006 
H  -2.0238  -2.2217  4.1356 
C  -1.2903  -1.3183  2.4655000000000022 
H  -2.0634  -0.7899  2.304400000000001 
