48
unq_CSD-PEMLIF-02-a
N  1.4082  1.4835000000000003  -0.41979999999999995 
N  -1.4082  1.4835000000000003  0.41990000000000016 
C  2.2936000000000005  3.7548999999999992  -0.7992999999999997 
H  3.0407  3.6500000000000004  -0.20579999999999998 
H  1.9722999999999997  4.658799999999999  -0.7511999999999999 
H  2.567199999999999  3.5599  -1.6976 
C  1.1890999999999998  2.8055000000000003  -0.39159999999999995 
C  0.0  3.4039  0.0 
H  0.0  4.3332999999999995  0.0 
C  2.7381  1.1128  -0.8251999999999997 
C  3.0035999999999996  0.8780000000000001  -2.1881 
C  4.2924999999999995  0.5309999999999997  -2.5637 
H  4.480899999999999  0.375  -3.4607 
C  5.300999999999999  0.4112999999999998  -1.6280999999999999 
H  6.1582  0.16920000000000002  -1.8954 
C  5.033499999999999  0.6533999999999995  -0.2980999999999998 
H  5.7167  0.5739999999999998  0.3275000000000001 
C  3.7581999999999995  1.0125000000000002  0.12570000000000014 
C  1.9168999999999992  1.0259  -3.2146999999999997 
H  1.6656000000000004  1.9498999999999995  -3.2828999999999997 
H  1.1551999999999998  0.5053999999999998  -2.9527 
H  2.237899999999999  0.7179000000000002  -4.0662 
C  3.5103999999999997  1.3285999999999998  1.5813000000000001 
H  4.2604999999999995  1.0353000000000003  2.1040000000000005 
H  2.7182000000000004  0.8753000000000002  1.8767 
H  3.397099999999999  2.2754000000000003  1.6869 
C  -2.2935  3.7548999999999992  0.7993999999999999 
H  -3.0406000000000004  3.6500000000000004  0.2059000000000002 
H  -1.9723000000000006  4.658799999999999  0.7512000000000003 
H  -2.5672000000000006  3.5599  1.6976 
C  -1.189  2.8055000000000003  0.39170000000000016 
C  -2.7381  1.1128  0.8252999999999999 
C  -3.0035000000000003  0.8780000000000001  2.1881999999999997 
C  -4.2925  0.5309999999999997  2.5638 
H  -4.4809  0.375  3.4606999999999997 
C  -5.3009  0.4112999999999998  1.6281000000000003 
H  -6.1581  0.16920000000000002  1.8954999999999997 
C  -5.0334  0.6533999999999995  0.29810000000000025 
H  -5.7167  0.5739999999999998  -0.3274999999999997 
C  -3.7582000000000004  1.0125000000000002  -0.12559999999999993 
C  -1.9168000000000003  1.0259  3.2148 
H  -1.6655000000000006  1.9498999999999995  3.2829 
H  -1.1552000000000007  0.5053999999999998  2.9528000000000003 
H  -2.2379000000000007  0.7179000000000002  4.0662 
C  -3.5103000000000004  1.3285999999999998  -1.5813 
H  -4.2605  1.0353000000000003  -2.1039 
H  -2.7181  0.8753000000000002  -1.8766999999999998 
H  -3.3970000000000002  2.2754000000000003  -1.6868999999999998 
