46
unq_CSD-NADYUO-02-a
N  -0.43929999999999936  -1.2043999999999997  1.6923 
N  1.6471  -0.8784999999999998  0.9832000000000005 
Si  -1.7913999999999999  -2.0418999999999996  2.4264000000000006 
Si  3.3625999999999996  -0.5186999999999999  0.9272000000000005 
C  0.8651  -1.4471999999999996  1.8786999999999998 
C  -2.2043  -1.4093999999999998  4.118500000000001 
H  -1.4303  -1.4673999999999996  4.681799999999999 
H  -2.9116  -1.9385  4.494 
H  -2.4856  -0.4935999999999998  4.059000000000001 
C  -3.2967999999999997  -1.8137999999999996  1.3892000000000002 
H  -3.4657  -0.8752999999999997  1.2721000000000005 
H  -4.0482  -2.2232  1.8224000000000005 
H  -3.1595999999999997  -2.2232  0.5321000000000002 
C  -1.4863  -3.8747  2.5177 
H  -1.3729999999999998  -4.2249  1.6328 
H  -2.2361999999999997  -4.303  2.9379000000000004 
H  -0.6939000000000002  -4.0409  3.0327000000000006 
C  4.3168  -1.0667999999999997  2.4303000000000003 
H  3.8473999999999995  -0.7996999999999996  3.2223 
H  5.1869000000000005  -0.6623999999999999  2.4229 
H  4.408500000000001  -2.0229  2.421 
C  4.1252  -1.3287999999999998  -0.5498999999999996 
H  4.0193  -2.2798999999999996  -0.4847999999999999 
H  5.0613  -1.1134  -0.5851999999999999 
H  3.6926999999999994  -1.0126  -1.3474999999999997 
C  3.5369  1.3229000000000006  0.8259000000000003 
H  3.1492000000000004  1.6364999999999998  0.006000000000000227 
H  4.465700000000001  1.5583999999999998  0.8500000000000001 
H  3.0851000000000006  1.7285000000000004  1.5695000000000001 
C  1.4116  -2.256  3.0145000000000004 
C  1.3322000000000003  -1.8175999999999997  4.3139 
H  0.8680000000000003  -1.0352999999999999  4.503299999999999 
C  1.9337  -2.5229999999999997  5.355700000000001 
H  1.8818000000000001  -2.1942  6.2249 
C  2.6077000000000004  -3.7096  5.1107 
C  2.6523000000000003  -4.1531  3.8167000000000004 
H  3.0831  -4.956799999999999  3.6351 
C  2.0815  -3.4488999999999996  2.7680000000000002 
H  2.1485000000000003  -3.7752  1.8986000000000005 
C  3.2762000000000002  -4.473  6.2231000000000005 
H  3.0122  -4.0838  7.0708 
H  2.9568000000000003  -5.3888  6.2082 
C  4.7185999999999995  -4.4844  6.146799999999999 
H  4.9921999999999995  -4.8106  5.286 
H  5.069400000000001  -5.0563  6.8329 
H  5.0528  -3.5925  6.2714 
