38
unq_CSD-TOQVOL-02-a
N  0.3742000000000001  -2.0890999999999997  1.0621999999999998 
N  -0.3742000000000001  -2.0890999999999997  -1.0623 
N  0.0  -4.2232  0.0 
C  0.0  -2.8079  0.0 
C  1.2636000000000003  -2.6340999999999997  2.115 
H  1.3244000000000007  -3.6241  1.9957000000000003 
C  -0.5740999999999996  -4.9551  1.1115000000000004 
H  -0.9108999999999998  -4.3114  1.7842000000000002 
H  0.1343999999999994  -5.4975  1.5408999999999997 
C  2.6651000000000007  -2.0457  1.9861000000000004 
H  3.0243  -2.2497  1.0972 
H  3.2462  -2.4367  2.6715 
H  2.6258999999999997  -1.0740999999999996  2.107 
C  0.6460000000000008  -2.3484999999999996  3.4794 
H  -0.25179999999999936  -2.7407999999999997  3.5206999999999997 
H  0.5861000000000001  -1.3807999999999998  3.6161000000000003 
H  1.2065000000000001  -2.7434  4.1806 
C  -1.7110000000000003  -5.8688  0.6821999999999999 
H  -2.0648999999999997  -6.3401  1.4661 
H  -1.3776000000000002  -6.5218  0.031799999999999606 
H  -2.4222  -5.3343  0.2735000000000003 
C  -1.2636000000000003  -2.6340999999999997  -2.115 
H  -1.3244000000000007  -3.6241  -1.9958 
C  0.5740999999999996  -4.9551  -1.1116000000000001 
H  0.9108999999999998  -4.3114  -1.7843 
H  -0.1343999999999994  -5.4975  -1.541 
C  -2.6651  -2.0457  -1.9862 
H  -3.0243  -2.2497  -1.0973000000000002 
H  -3.2462  -2.4367  -2.6715999999999998 
H  -2.6258999999999997  -1.0740999999999996  -2.1071 
C  -0.6460000000000008  -2.3484999999999996  -3.4795 
H  0.25179999999999936  -2.7407999999999997  -3.5208 
H  -0.5861000000000001  -1.3807999999999998  -3.6162 
H  -1.2065000000000001  -2.7434  -4.1807 
C  1.7110000000000003  -5.8688  -0.6823000000000001 
H  2.0648999999999997  -6.3401  -1.4662000000000002 
H  1.3775999999999993  -6.5218  -0.03180000000000005 
H  2.4222  -5.3343  -0.27360000000000007 
