44
unq_CSD-TOQWEC-02-a
N  1.9434000000000002  0.7222000000000004  -1.2274999999999996 
N  1.7301000000000002  1.4022000000000001  0.9046000000000003 
N  3.6195000000000004  2.2058000000000004  -0.34499999999999975 
C  2.4386  1.4404  -0.22059999999999924 
C  2.7763  0.29510000000000014  -2.3541999999999996 
H  3.6641000000000004  0.7483  -2.2841999999999993 
C  2.9918000000000005  -1.2132  -2.3002999999999996 
H  3.4091000000000005  -1.4537  -1.4470999999999998 
H  3.5762  -1.487  -3.0375999999999994 
H  2.1285000000000003  -1.6703000000000001  -2.3815999999999997 
C  2.1273000000000004  0.6964999999999999  -3.6737999999999995 
H  1.9955000000000003  1.6679  -3.6918999999999995 
H  1.2613000000000003  0.24860000000000015  -3.7619999999999996 
H  2.7089000000000003  0.43199999999999994  -4.417999999999999 
C  1.8691000000000002  2.4187  1.9438000000000004 
H  2.6476  3.0048  1.7187000000000001 
C  0.6119000000000003  3.2772  2.0089000000000006 
H  0.45750000000000024  3.6984999999999997  1.1378000000000004 
H  0.7259000000000002  3.9709  2.6907000000000005 
H  -0.1560999999999999  2.7151  2.2397 
C  2.1256000000000004  1.7569000000000004  3.2882000000000007 
H  2.9374000000000002  1.2081000000000004  3.2323000000000004 
H  1.3636000000000004  1.1881999999999997  3.5228 
H  2.2424000000000004  2.4465999999999997  3.975500000000001 
C  4.7165  1.9124000000000003  0.5701 
H  4.2636  1.5044  1.3633000000000006 
C  5.6625  0.8466  0.11100000000000065 
H  5.1524  0.09310000000000018  -0.25289999999999946 
H  6.2016  0.5409999999999999  0.8696000000000002 
H  6.250500000000001  1.2094  -0.5842999999999998 
C  5.4481  3.1123999999999996  1.1470000000000002 
H  4.7963000000000005  3.7849  1.4351000000000003 
H  6.0333000000000006  3.4978000000000002  0.4630000000000001 
H  5.9853000000000005  2.8294  1.9151000000000007 
C  3.6324000000000005  3.2174  -1.4116999999999997 
H  2.9096  2.9516000000000004  -2.0500999999999996 
C  3.2439  4.5929  -0.8917999999999995 
H  2.4175000000000004  4.5237  -0.3707999999999996 
H  3.1015  5.200200000000001  -1.6486999999999998 
H  3.9616000000000002  4.942400000000001  -0.32289999999999974 
C  4.9141  3.2746  -2.2305999999999995 
H  5.1373  2.3762000000000003  -2.5507 
H  5.6429  3.6134  -1.6708999999999996 
H  4.7851  3.8712000000000004  -2.9966 
