23
unq_CSD-PEQCUK-02-a
N  1.5758999999999999  0.6234999999999999  1.2078000000000007 
N  -0.31889999999999974  1.7551  1.3984000000000005 
C  0.9247000000000005  1.6057000000000001  1.8162000000000003 
C  -1.2382  2.6691000000000003  1.9312000000000005 
C  2.9819000000000004  0.6155999999999999  1.6028000000000002 
H  3.5545  0.9415  0.8638000000000003 
H  3.2699  -0.2984  1.8508000000000004 
C  -3.1944  4.4405  2.886 
H  -3.8560999999999996  5.0388  3.2106000000000003 
C  -2.3792  3.7687999999999997  3.7481 
H  -2.4780999999999995  3.9074999999999998  4.6834999999999996 
C  3.0697  1.5464  2.7961 
H  3.8741000000000003  2.1195  2.7312000000000003 
H  3.1161000000000003  1.0284  3.6383 
C  -1.4123999999999999  2.8914999999999997  3.2934 
H  -0.8616999999999999  2.4353  3.9179000000000004 
C  -2.0754  3.3544  1.0619000000000005 
H  -1.9850999999999999  3.2207  0.12650000000000006 
C  1.8047000000000004  2.3902  2.7562000000000006 
H  1.3940000000000001  2.4671000000000003  3.6549000000000005 
H  1.9887000000000006  3.2976  2.4050000000000002 
C  -3.038  4.2299999999999995  1.5329000000000006 
H  -3.5961999999999996  4.6895  0.9171000000000005 
