50
unq_CSD-TUBMIP-02-a
N  0.7184999999999997  0.9476  -1.576 
N  0.25450000000000017  1.9818000000000002  0.2814 
C  1.1271999999999993  0.5559999999999996  -2.9199 
H  1.5499  1.3313000000000001  -3.3683 
C  2.150199999999999  -0.5784000000000002  -2.8135 
H  1.7603999999999997  -1.3201  -2.3055 
H  2.9386  -0.2596000000000003  -2.3255 
C  2.584699999999999  -1.0865  -4.2103 
H  3.0820999999999996  -0.3792  -4.6711 
H  3.1824000000000003  -1.8554000000000002  -4.103000000000001 
C  1.3936000000000002  -1.4937  -5.0582 
H  0.9707999999999997  -2.2862  -4.665800000000001 
H  1.7003999999999992  -1.7287000000000003  -5.958600000000001 
C  0.3727999999999998  -0.3716000000000004  -5.1504 
H  -0.4099000000000004  -0.6824000000000003  -5.651700000000001 
H  0.7626999999999997  0.3855999999999997  -5.6349 
C  -0.06400000000000006  0.08599999999999985  -3.7527 
H  -0.7094000000000005  0.8188  -3.8382 
H  -0.5089000000000006  -0.6562000000000001  -3.2925 
C  0.7031999999999998  2.1510000000000002  -0.9672999999999999 
C  1.0393  3.4823999999999997  -1.6827 
C  0.18049999999999944  3.5985  -2.9653 
H  0.33779999999999966  2.8256  -3.5301 
H  -0.7576999999999998  3.6374999999999997  -2.7241 
H  0.42519999999999936  4.404999999999999  -3.4457 
C  2.544999999999999  3.5241000000000002  -2.0334 
H  2.7768000000000006  2.7415  -2.5578 
H  2.7357000000000005  4.3248999999999995  -2.5466 
H  3.0675  3.5319  -1.2162 
C  0.7275  4.741099999999999  -0.8546 
H  1.2411000000000003  4.722399999999999  -0.032100000000000004 
H  0.9635999999999996  5.530999999999999  -1.3656 
H  -0.2193000000000005  4.763499999999999  -0.644 
C  0.4767999999999999  2.7937  1.4819 
H  0.12729999999999997  3.7071  1.3275 
C  1.9640999999999993  2.8770000000000002  1.8523 
H  2.3245999999999993  1.9708  1.9501 
H  2.4539  3.3197999999999994  1.1280000000000001 
C  2.1816000000000004  3.6515  3.1575 
H  3.1376999999999997  3.6699999999999995  3.3721 
H  1.877299999999999  4.575999999999999  3.0443000000000002 
C  1.4114999999999993  2.9963  4.3068 
H  1.777499999999999  2.1035999999999997  4.4788 
H  1.5203999999999995  3.5315999999999996  5.1205 
C  -0.06070000000000064  2.8839  3.9671 
H  -0.4462999999999999  3.7827999999999995  3.9071 
H  -0.5212000000000003  2.4061  4.6879 
C  -0.2942  2.1454999999999997  2.6425 
H  -1.2526000000000002  2.1492999999999998  2.4356 
H  -0.010400000000000631  1.2125999999999997  2.7381 
