29
unq_CSD-UDUCIH-02-a
N  -1.650100000000002  1.1311  1.1592000000000002 
N  0.4560999999999993  1.7645999999999997  0.9735000000000014 
C  -0.8064  2.1038999999999994  1.3463000000000012 
C  -1.2048000000000023  3.4993  1.785400000000001 
H  -1.2778000000000027  3.527100000000001  2.7634000000000007 
H  -2.069600000000001  3.7341999999999995  1.3866000000000014 
H  -0.5258000000000003  4.143000000000001  1.491200000000001 
C  -3.0333000000000006  1.2856000000000005  1.4175000000000004 
C  -3.4926000000000013  1.4383  2.727400000000001 
H  -2.8735999999999997  1.4631000000000007  3.4483000000000015 
C  -4.848500000000001  1.5625  2.9773000000000014 
H  -5.152700000000001  1.6647999999999996  3.8709000000000007 
C  -5.760200000000001  1.5311000000000003  1.9479000000000006 
H  -6.689200000000001  1.6203000000000003  2.1273000000000017 
C  -5.315200000000001  1.370000000000001  0.6483000000000008 
H  -5.9411000000000005  1.3449000000000009  -0.06689999999999863 
C  -3.958000000000002  1.2454  0.37890000000000157 
H  -3.660700000000002  1.1326999999999998  -0.5160999999999998 
C  1.5910999999999973  2.521000000000001  1.3318000000000012 
C  2.6519999999999975  2.642800000000001  0.4233000000000011 
H  2.5901999999999994  2.235800000000001  -0.43239999999999945 
C  3.789999999999999  3.354000000000001  0.766 
H  4.503  3.4282000000000004  0.14230000000000054 
C  3.907899999999998  3.9505  2.0075000000000003 
H  4.684799999999999  4.450699999999999  2.2277000000000005 
C  2.8767999999999994  3.8194  2.921000000000001 
H  2.9558  4.2186  3.7802000000000007 
C  1.7332999999999998  3.1068  2.5922 
H  1.0372999999999983  3.0144  3.232000000000001 
