26
unq_CSD-UFUDEF-02-a
N  0.5848999999999998  2.1699  -0.5102 
N  -1.6307  0.7877000000000001  -0.8925999999999998 
N  -2.8728000000000002  2.6532  -1.3864 
C  -1.7236  2.1722  -0.9545999999999999 
C  1.7868999999999997  2.8009000000000004  -0.4632999999999998 
C  -2.8842  0.36350000000000016  -1.3497 
C  -0.5260000000000002  2.9326  -0.6532 
C  1.8370000000000002  4.1958  -0.41769999999999996 
H  2.664  4.618  -0.3657999999999999 
C  -3.629  1.5187  -1.6473 
C  -0.5218000000000003  4.3176  -0.5988 
H  -1.3117  4.8039  -0.6620999999999999 
C  -4.943  1.4207  -2.1334999999999997 
H  -5.446  2.1786000000000003  -2.3222 
C  3.0502999999999996  2.0221  -0.5329999999999999 
H  2.8467999999999996  1.0849000000000002  -0.5556999999999999 
H  3.587  2.2157999999999998  0.23819999999999997 
H  3.5314  2.2647000000000004  -1.3269 
C  -3.4057  -0.9118999999999999  -1.5497999999999998 
H  -2.9099  -1.6764999999999999  -1.3674 
C  0.7046000000000001  4.9537  -0.4456 
H  0.7521999999999998  5.8793999999999995  -0.3644999999999998 
C  -5.4477  0.1741999999999999  -2.3184 
H  -6.3151  0.08340000000000014  -2.6412999999999998 
C  -4.7032  -0.9825999999999999  -2.036 
H  -5.0902  -1.8159999999999998  -2.1778999999999997 
