40
unq_CSD-PUVLIC-02-c
N  -1.0204999999999993  -1.3120000000000003  -1.4939 
N  -1.0655000000000001  -1.3885000000000005  1.1300000000000008 
N  -1.2332999999999998  -1.5981000000000005  2.4657999999999998 
N  -2.1818999999999997  -3.3147  1.3385999999999996 
C  -1.0291999999999994  -1.1867000000000005  -2.8994999999999997 
C  -0.7608999999999995  0.07459999999999933  -3.4793000000000003 
H  -0.5583  0.8163999999999998  -2.9204000000000008 
C  -0.7912999999999997  0.23989999999999956  -4.8427 
H  -0.6019999999999994  1.0911999999999997  -5.2171 
C  -1.0949  -0.8315000000000001  -5.6803 
H  -1.1014999999999997  -0.7100000000000009  -6.6223 
C  -1.3838999999999997  -2.0558000000000005  -5.1457 
H  -1.6045999999999996  -2.7767000000000004  -5.7238 
C  -1.3603999999999998  -2.2680000000000002  -3.7423 
C  -1.7056999999999998  -3.5366000000000004  -3.1537000000000006 
C  -1.9277999999999995  -4.6938  -3.9146 
H  -1.7992999999999997  -4.669600000000001  -4.8549 
C  -2.3263  -5.8546000000000005  -3.3173999999999992 
H  -2.4650999999999996  -6.6325  -3.8450000000000006 
C  -2.5313  -5.9104  -1.9505 
H  -2.8375  -6.7163  -1.5517000000000003 
C  -2.295  -4.8044  -1.1616999999999997 
H  -2.4143999999999997  -4.8574  -0.22140000000000093 
C  -1.8781999999999996  -3.5956  -1.7501999999999995 
C  -1.5346999999999995  -2.4281000000000006  -0.9632000000000005 
C  -1.6328999999999998  -2.4170000000000003  0.4855999999999998 
C  -1.9017999999999997  -2.7653000000000003  2.531599999999999 
C  -2.2590999999999997  -3.378  3.8637000000000015 
C  -3.1462999999999997  -2.4194000000000004  4.649000000000001 
H  -3.9768999999999997  -2.2633000000000005  4.154499999999999 
H  -2.6765  -1.5697000000000005  4.7761 
H  -3.3548999999999998  -2.8113000000000006  5.5230999999999995 
C  -0.9741  -3.5930000000000004  4.661200000000001 
H  -0.5145999999999997  -2.7355000000000005  4.777899999999999 
H  -0.38949999999999996  -4.2128000000000005  4.177099999999999 
H  -1.1925999999999997  -3.9687000000000006  5.538799999999998 
C  -2.9947  -4.690200000000001  3.6721000000000004 
H  -2.4168999999999996  -5.3218000000000005  3.1967999999999996 
H  -3.8087999999999997  -4.534700000000001  3.149799999999999 
H  -3.2335999999999996  -5.0619000000000005  4.547999999999998 
