40
unq_CSD-QAKMOH-02-a
N  -0.9756  -1.3234  1.0739 
N  0.9756  -1.3234  -1.0738000000000003 
C  -1.7482000000000002  -0.8881000000000001  2.183 
C  -2.5624000000000002  0.2330000000000001  2.028600000000001 
H  -2.6278  0.6453000000000002  1.1969999999999992 
C  -3.2759  0.7402000000000002  3.1068999999999996 
H  -3.8177000000000003  1.4887000000000001  2.9941999999999993 
C  -3.1822  0.13140000000000018  4.3580000000000005 
H  -3.6468000000000003  0.47940000000000005  5.084599999999998 
C  -2.3907  -0.9987999999999999  4.5123999999999995 
H  -2.3405000000000005  -1.4193  5.340299999999999 
C  -1.6720000000000002  -1.5057  3.434899999999999 
H  -1.1386000000000003  -2.2588  3.548300000000001 
C  -0.8381000000000003  -2.6313  0.9154999999999998 
H  -1.351  -3.1742  1.4697999999999993 
C  0.0  -3.2799  0.0 
C  0.0  -4.7679  0.0 
C  -1.1965000000000003  -5.4830000000000005  -0.11289999999999978 
H  -2.0016  -5.0229  -0.1891999999999996 
C  -1.1972  -6.875500000000001  -0.1117000000000008 
H  -1.9999000000000002  -7.3393999999999995  -0.1858000000000004 
C  0.0  -7.575799999999999  0.0 
H  0.0  -8.5066  0.0 
C  1.7481999999999998  -0.8881000000000001  -2.183 
C  2.5624000000000002  0.2330000000000001  -2.0284999999999993 
H  2.6277999999999997  0.6453000000000002  -1.1968999999999994 
C  3.2758000000000003  0.7402000000000002  -3.1068 
H  3.8176999999999994  1.4887000000000001  -2.9940999999999995 
C  3.1822  0.13140000000000018  -4.3580000000000005 
H  3.6467  0.47940000000000005  -5.0845 
C  2.3907  -0.9987999999999999  -4.5123 
H  2.3404999999999996  -1.4193  -5.3403 
C  1.6719999999999997  -1.5057  -3.4349000000000007 
H  1.1384999999999996  -2.2588  -3.5482999999999993 
C  0.8380999999999998  -2.6313  -0.9154 
H  1.351  -3.1742  -1.4697999999999993 
C  1.1963999999999997  -5.4830000000000005  0.11289999999999978 
H  2.0015  -5.0229  0.18929999999999936 
C  1.1971999999999996  -6.875500000000001  0.1117000000000008 
H  1.9999000000000002  -7.3393999999999995  0.18590000000000018 
