31
unq_CSD-QAZWAS-02-a
N  1.3581000000000003  0.5991999999999997  1.2118 
N  -1.1780999999999997  0.8628999999999998  1.2659 
C  2.7045000000000003  0.6788999999999996  1.3662 
H  3.3234000000000004  0.3168999999999995  0.7738 
C  3.0359000000000007  1.3697  2.5218 
H  3.8946999999999994  1.5514000000000001  2.8293 
C  1.8498999999999999  1.7360999999999995  3.1311 
H  1.7519999999999998  2.2104  3.9236 
C  0.8360000000000003  1.25  2.3126 
C  -0.5705999999999998  1.3762999999999996  2.3088 
C  -1.2808000000000002  2.0885  3.4172 
H  -1.6756000000000002  2.8945  3.0768 
H  -0.6539999999999999  2.3072  4.1109 
H  -1.9676  1.5210999999999997  3.7734 
C  -2.5856  1.1288999999999998  1.1241 
C  -3.5237  0.27190000000000003  1.6936 
C  -4.8761  0.5798999999999994  1.4962 
H  -5.5268  0.025099999999999678  1.8638 
C  -5.2603  1.6711  0.781 
H  -6.165  1.8536000000000001  0.6637 
C  -4.3175  2.5045  0.2317 
H  -4.5928  3.2492  -0.2532 
C  -2.9575  2.2547999999999995  0.3876 
C  -1.9167999999999998  3.1627  -0.2217 
H  -2.3489  3.8275999999999994  -0.761 
H  -1.3204000000000002  2.6448  -0.7667 
H  -1.4184  3.5919  0.4777 
C  -3.1104  -0.9589000000000003  2.4402 
H  -2.3728  -1.3756000000000004  1.9868 
H  -3.8486  -1.5721000000000003  2.4803 
H  -2.8451  -0.7188000000000003  3.3314 
