25
unq_CSD-QEJFIW-02-a
N  -0.7690999999999999  1.6183999999999994  -1.3519999999999999 
N  0.5270000000000001  2.1976999999999993  -1.1075 
C  -1.7030999999999998  2.4732000000000003  -1.9203999999999999 
C  -1.4511999999999998  3.7888  -2.3334 
H  -0.5710999999999999  4.142000000000001  -2.2759 
C  -2.4806  4.579199999999998  -2.8272 
H  -2.2915  5.471200000000001  -3.0937 
C  -3.7697000000000003  4.1038000000000014  -2.9401 
H  -4.4642  4.658099999999999  -3.2752 
C  -4.0295000000000005  2.794500000000001  -2.552 
H  -4.9107  2.4473000000000003  -2.6308 
C  -3.0231000000000003  1.9974000000000007  -2.0544 
H  -3.2234  1.1049000000000007  -1.7946 
C  1.4173  2.3972999999999995  -2.1992 
C  2.5086000000000004  3.244200000000001  -1.9989 
H  2.5934  3.7231000000000005  -1.1827 
C  3.4690000000000003  3.3872000000000018  -2.9879 
H  4.2159  3.955399999999999  -2.8429 
C  3.3467000000000002  2.707300000000002  -4.1814 
H  4.0156  2.7901000000000007  -4.8518 
C  2.2455  1.9052000000000007  -4.3959 
H  2.1501  1.4552999999999994  -5.227 
C  1.2648000000000001  1.7428000000000008  -3.4082 
H  0.5077000000000002  1.1925000000000008  -3.5669 
H  0.40300000000000014  2.8796000000000017  -0.5382 
