40
unq_CSD-QEJHUJ-02-b
N  1.948599999999999  0.04779999999999962  0.03310000000000013 
N  -0.2934000000000001  1.7877  0.6854 
C  4.0924  1.2901999999999996  -0.1704 
H  4.504999999999999  1.0358  0.6577999999999999 
H  4.342700000000001  2.1906999999999996  -0.38869999999999993 
H  4.382999999999999  0.6996000000000002  -0.8684 
C  2.576599999999999  1.2046000000000001  -0.02950000000000008 
C  1.9288000000000007  2.4524999999999997  0.035800000000000054 
H  2.4114000000000004  3.1843000000000004  -0.27679999999999993 
C  0.6280000000000001  2.7222999999999997  0.5210000000000001 
C  0.35689999999999955  4.1793  0.8537999999999999 
H  0.27449999999999974  4.279999999999999  1.8046 
H  -0.4585000000000008  4.4581  0.42999999999999994 
H  1.0831999999999997  4.7204999999999995  0.5358 
C  2.7113999999999994  -1.1770999999999998  0.2912000000000001 
H  3.655899999999999  -0.9935999999999998  0.16720000000000002 
H  2.4536999999999995  -1.8519  -0.3557 
C  2.491199999999999  -1.7247  1.6975 
H  1.5418000000000003  -1.9459  1.7871 
C  3.2959999999999994  -3.015  1.8968999999999998 
H  3.0677000000000003  -3.644  1.2083000000000002 
H  3.0899  -3.3918  2.7554 
H  4.2339  -2.8176  1.8511 
C  2.835699999999999  -0.7082000000000002  2.7756 
H  2.3096999999999994  0.08370000000000033  2.6482 
H  3.7683999999999997  -0.48409999999999975  2.7190000000000003 
H  2.6492000000000004  -1.0821  3.6394 
C  -1.4991000000000003  2.1452  1.4636000000000002 
H  -2.2225  1.5521000000000003  1.211 
H  -1.7647000000000004  3.0491  1.2331999999999999 
C  -1.2937000000000003  2.0594  2.9783999999999997 
H  -0.5195000000000007  2.612  3.2142 
C  -1.0125000000000002  0.6334  3.4231 
H  -0.2485999999999997  0.2939999999999996  2.9494 
H  -1.7767  0.08230000000000004  3.2337999999999996 
H  -0.8353000000000002  0.6200999999999999  4.366499999999999 
C  -2.5239000000000003  2.6296  3.6898999999999997 
H  -2.4050000000000002  2.5593000000000004  4.64 
H  -3.3029  2.1359000000000004  3.4272 
H  -2.6338  3.5531000000000006  3.4486999999999997 
