36
unq_CSD-QEJNUP-02-a
N  1.8556999999999988  0.42459999999999987  0.2463999999999995 
N  0.07249999999999979  -1.6659000000000002  1.0398999999999994 
C  2.2308000000000003  1.6747999999999994  -0.3250000000000002 
C  2.1159  1.8721999999999994  -1.6854000000000005 
H  1.8335999999999988  1.1736999999999993  -2.2296000000000005 
C  2.417399999999999  3.1033  -2.2475000000000005 
H  2.352499999999999  3.221  -3.1687000000000003 
C  2.8087  4.141  -1.4561000000000002 
H  3.004999999999999  4.969099999999999  -1.8332000000000006 
C  2.9117999999999995  3.9609000000000005  -0.1164000000000005 
H  3.1798  4.6698  0.4208999999999996 
C  2.6266  2.7478  0.45809999999999995 
H  2.7004  2.6442999999999994  1.3806999999999992 
C  2.7676  -0.24040000000000017  0.9935999999999998 
C  4.129099999999999  0.15639999999999965  1.0968999999999998 
H  4.4193999999999996  0.8902999999999999  0.6044999999999998 
C  5.020999999999999  -0.4942000000000002  1.8861999999999988 
H  5.8939  -0.17790000000000017  1.9414999999999996 
C  4.661  -1.6156000000000001  2.6113 
H  5.2791999999999994  -2.0528000000000004  3.151399999999999 
C  3.387699999999999  -2.0601000000000003  2.5146999999999995 
H  3.1408000000000005  -2.8178  2.9924999999999997 
C  2.414299999999999  -1.4166000000000003  1.7131999999999987 
C  1.1326999999999998  -2.0300000000000002  1.7019000000000002 
H  1.0395000000000003  -2.7861000000000002  2.2342999999999993 
C  -1.0681000000000012  -2.5277000000000003  1.0591999999999997 
C  -0.968300000000001  -3.9077  1.2121999999999993 
H  -0.13480000000000025  -4.2904  1.3668999999999993 
C  -2.079600000000001  -4.713500000000001  1.1389999999999993 
H  -1.9967000000000006  -5.6321  1.2523 
C  -3.3070000000000004  -4.1635  0.8986999999999998 
H  -4.0583  -4.708600000000001  0.8379999999999992 
C  -3.4278000000000004  -2.8137000000000003  0.7481999999999998 
H  -4.2644  -2.4413000000000005  0.5851999999999995 
C  -2.3267000000000007  -1.9977000000000005  0.8355999999999995 
H  -2.4276999999999997  -1.0777000000000005  0.7426999999999992 
