14
unq_CSD-QESVES-02-c
N  -1.6506  -0.3183  -1.2434999999999992 
N  0.5154  -1.7214  -0.9852999999999987 
C  -1.6697000000000002  -1.4936  -1.8897999999999993 
N  -0.05370000000000008  -3.4690000000000003  -2.277899999999999 
N  1.5715  -2.574  -1.0535999999999994 
C  -0.4273  -2.2732  -1.7365999999999993 
N  -2.7058  -1.9871  -2.6243999999999996 
N  1.2160000000000002  -3.6018  -1.8398000000000003 
C  -2.6925  0.4555  -1.4200999999999997 
H  -2.703  1.2906000000000002  -1.0152999999999999 
C  -3.7784  -1.187  -2.7226999999999997 
H  -4.5387  -1.4994  -3.157499999999999 
C  -3.7839  0.0686  -2.1997 
H  -4.4907  0.6496999999999999  -2.3561999999999994 
