36
unq_CSD-QEZYUP-02-a
N  -0.6477999999999999  -0.2590999999999999  -1.8596000000000004 
N  -1.4169999999999998  -1.4367999999999999  -0.23940000000000072 
C  -1.5608999999999997  -1.1854  -1.5313000000000003 
C  -2.5642  -1.7726  -2.5526000000000004 
C  -3.3742  -2.9892  -2.0794000000000006 
C  -3.6029  -0.6818  -2.8760000000000003 
C  -1.823  -2.2629  -3.8200000000000003 
C  -2.1693  -2.3302  0.6329999999999991 
C  -3.3049999999999997  -1.5663  1.3040999999999991 
C  -1.2559  -2.9642999999999997  1.6715 
C  -0.5784  0.5828  -3.0521000000000003 
C  -0.9781  2.0263999999999998  -2.7673000000000005 
C  0.8214  0.5265000000000002  -3.6623000000000006 
H  -3.9614000000000003  -2.7729999999999997  -1.3169000000000004 
H  -3.9275  -3.2699  -2.8149000000000006 
H  -2.7848  -3.742  -1.8729000000000005 
H  -3.2181999999999995  0.11740000000000017  -3.2100000000000004 
H  -4.0671  -0.46229999999999993  -2.0595000000000003 
H  -4.2331  -1.0255  -3.5337000000000005 
H  -1.2418999999999998  -1.6135  -4.2251 
H  -2.4516999999999998  -2.6239  -4.450100000000001 
H  -1.3415  -3.0298  -3.6197000000000004 
H  -2.5377  -3.0298  0.12439999999999962 
H  -3.9056999999999995  -1.216  0.6090999999999998 
H  -3.7603999999999997  -2.1187  1.8911999999999995 
H  -2.921  -0.8515999999999999  1.8527999999999993 
H  -1.7239  -3.5598  2.1765 
H  -0.9077  -2.3506  2.268 
H  -0.5356999999999998  -3.3941999999999997  1.2455999999999996 
H  -1.1947  0.2499  -3.7258000000000004 
H  -0.3999999999999999  2.4197999999999995  -2.1235000000000004 
H  -0.9735  2.5191999999999997  -3.5904000000000007 
H  -1.8809999999999998  2.1051  -2.3503000000000003 
H  1.0673000000000001  -0.3547  -3.8849000000000005 
H  0.8816  1.0698  -4.461 
H  1.4678  0.8793  -3.0344000000000007 
