47
unq_CSD-QIFFET-02-a
N  -1.1073000000000004  0.7575000000000003  -1.584999999999999 
N  -1.4724000000000004  1.4207999999999998  0.47470000000000034 
C  -2.0446  2.1630000000000003  1.5253000000000014 
C  -1.7477  1.6156000000000006  -0.8102999999999998 
C  -1.5966000000000005  -0.02430000000000021  -5.164199999999999 
H  -2.0845000000000002  -0.6422000000000008  -5.6957 
C  -1.0236999999999998  0.8403999999999989  -2.9937000000000005 
C  -3.1682  3.569699999999999  3.681000000000001 
C  -1.4441000000000006  3.3345000000000002  1.9939 
C  -3.745  2.404  3.2088 
H  -4.5352  2.0815  3.6262000000000008 
C  -3.2083000000000004  1.6885999999999992  2.1448 
C  -0.7544000000000004  0.8774999999999995  -5.7895 
C  -2.0172  4.0121  3.0638000000000005 
H  -1.6021999999999998  4.805899999999999  3.3801999999999985 
C  -1.7525000000000004  -0.05540000000000056  -3.782499999999999 
C  -0.16349999999999998  1.7540999999999993  -3.6068 
C  -0.055800000000000516  1.7614  -4.9886 
H  0.5186000000000002  2.3965999999999994  -5.399799999999999 
C  -2.6870000000000003  2.6555999999999997  -1.3104999999999993 
H  -2.6111  3.4588  -0.7542999999999989 
H  -3.6047000000000002  2.314499999999999  -1.2683999999999997 
H  -2.4635000000000002  2.878399999999999  -2.2384000000000004 
C  -0.5728  0.8669999999999991  -7.2888 
H  -0.24509999999999987  -0.012199999999999989  -7.571899999999999 
H  0.07759999999999945  1.5549999999999997  -7.5435 
H  -1.4308000000000005  1.0518  -7.7234 
C  -3.7903000000000002  4.3337  4.825900000000001 
H  -4.590400000000001  4.8024000000000004  4.509499999999999 
H  -3.145  4.9864  5.171299999999999 
H  -4.0369  3.7097999999999995  5.5396 
C  -2.6886  -1.0431000000000008  -3.1494 
H  -3.4846000000000004  -0.5756999999999994  -2.8214000000000006 
H  -2.2380000000000004  -1.486600000000001  -2.4002 
H  -2.9538  -1.7138  -3.8133999999999997 
C  -3.8605  0.4283000000000001  1.6548000000000016 
H  -4.284000000000001  0.5952000000000002  0.7871000000000006 
H  -4.5397  0.13959999999999972  2.2997000000000014 
H  -3.1833  -0.2737999999999996  1.5579999999999998 
C  -0.19720000000000049  3.8588000000000005  1.3327000000000009 
H  0.43789999999999996  3.1235999999999997  1.2039000000000009 
H  0.20950000000000024  4.545999999999999  1.9008000000000003 
H  -0.4275000000000002  4.2477  0.4632000000000005 
C  0.6399999999999997  2.719999999999999  -2.774799999999999 
H  0.041699999999999626  3.3887  -2.3804999999999996 
H  1.3014999999999999  3.168899999999999  -3.342699999999999 
H  1.1007999999999996  2.2323000000000004  -2.060699999999999 
