49
unq_CSD-QIRWIA-02-a
N  1.3055999999999999  1.3548999999999998  0.6728999999999998 
N  -1.3054999999999999  1.3548999999999998  -0.6727999999999996 
N  0.0  3.3136  0.0 
C  1.012  2.7371999999999987  0.6232000000000002 
C  2.0819  3.4688999999999988  1.2540999999999998 
C  2.242  4.813  1.6208000000000005 
H  1.6018  5.4723  1.3771999999999998 
C  3.3608  5.134999999999999  2.3480000000000003 
H  3.4764  6.036499999999999  2.6262000000000003 
C  4.3206  4.2185999999999995  2.6915 
H  5.0842  4.499199999999999  3.1828 
C  4.192  2.8836000000000004  2.3278000000000003 
H  4.8566  2.245499999999999  2.5609000000000006 
C  3.0574  2.5120999999999993  1.613 
C  2.5395  1.2332999999999998  1.2230000000000003 
C  3.2123  -0.07820000000000071  1.3131 
C  4.5587  -0.1795  0.9604000000000004 
H  5.0539000000000005  0.6040999999999999  0.7526000000000006 
C  5.1739999999999995  -1.4155000000000006  0.9106999999999998 
H  6.089600000000001  -1.4841000000000006  0.6662000000000003 
C  4.4506  -2.5524000000000004  1.2183000000000006 
H  4.8665  -3.4049000000000005  1.1701000000000001 
C  3.1439  -2.4579000000000004  1.5913 
H  2.6558  -3.2442000000000006  1.8080000000000003 
C  2.5228  -1.2264000000000008  1.6581000000000006 
H  1.6180999999999999  -1.1679000000000004  1.9409000000000005 
C  -1.0119000000000002  2.7371999999999987  -0.6231 
C  -2.0818  3.4688999999999988  -1.254 
C  -2.2419000000000002  4.813  -1.6206999999999998 
H  -1.6017000000000001  5.4723  -1.3771 
C  -3.3607  5.134999999999999  -2.348 
H  -3.4764000000000004  6.036499999999999  -2.6261 
C  -4.320500000000001  4.2185999999999995  -2.6914 
H  -5.084099999999999  4.499199999999999  -3.1826999999999996 
C  -4.1919  2.8836000000000004  -2.3278 
H  -4.8565000000000005  2.245499999999999  -2.5607999999999995 
C  -3.0573  2.5120999999999993  -1.6128999999999998 
C  -2.5394  1.2332999999999998  -1.2228999999999997 
C  -3.2121999999999997  -0.07820000000000071  -1.3129999999999997 
C  -4.5587  -0.1795  -0.9602999999999997 
H  -5.053800000000001  0.6040999999999999  -0.7525999999999997 
C  -5.1739  -1.4155000000000006  -0.9105999999999996 
H  -6.089499999999999  -1.4841000000000006  -0.6660999999999997 
C  -4.4505  -2.5524000000000004  -1.2182 
H  -4.8665  -3.4049000000000005  -1.17 
C  -3.1438  -2.4579000000000004  -1.5911999999999997 
H  -2.6557  -3.2442000000000006  -1.8078999999999996 
C  -2.5227  -1.2264000000000008  -1.658 
H  -1.6179999999999999  -1.1679000000000004  -1.9407999999999999 
