72
unq_CSD-QOCLAY-02-a
N  -0.4024000000000001  1.9187999999999992  0.24719999999999942 
N  0.7713000000000001  -0.20400000000000063  1.8099000000000007 
C  1.4778000000000002  0.21309999999999896  3.9435000000000002 
C  -0.04209999999999958  2.673499999999999  1.357000000000001 
C  -0.9325999999999999  2.7413999999999987  -0.6585999999999999 
C  0.5278999999999998  2.1309999999999985  2.532300000000001 
C  0.8909000000000002  0.8024999999999984  2.7570999999999994 
C  -0.37099999999999955  4.0571  1.0844000000000005 
C  1.2735000000000003  -1.3280000000000012  2.3202 
C  -1.4100000000000001  2.2577999999999996  -1.9756999999999998 
H  -0.6467  1.9489  -2.5063999999999993 
H  -1.8621999999999996  2.988199999999999  -2.4467999999999996 
H  -2.0373  1.5167000000000002  -1.842699999999999 
C  -0.9185999999999996  4.059299999999999  -0.1850000000000005 
H  -1.2314999999999996  4.823099999999998  -0.6557999999999993 
C  1.3578999999999999  -2.548  1.5181000000000004 
H  0.8632999999999997  -2.5618  0.7077000000000009 
C  0.7888000000000002  3.0787999999999993  3.6723999999999997 
C  1.7174000000000005  -1.1135000000000002  3.643700000000001 
H  2.1073000000000004  -1.7601000000000013  4.2189 
C  -0.21509999999999962  5.3012999999999995  1.9088000000000012 
H  -0.7801  5.237399999999999  2.7073 
H  -0.48599999999999977  6.080699999999998  1.3794000000000004 
H  0.7216000000000005  5.399800000000001  2.178700000000001 
C  2.091100000000001  3.6262999999999987  3.8239 
C  1.7815000000000003  0.8099999999999987  5.305299999999999 
H  2.4842999999999993  1.488199999999999  5.213900000000001 
H  2.086500000000001  0.10389999999999944  5.9115 
H  0.9720000000000004  1.2260999999999989  5.667200000000001 
C  -1.5580999999999996  2.8796999999999997  4.465 
H  -1.7779999999999996  2.3230999999999984  3.7276000000000007 
C  -2.5191  3.1914999999999996  5.357900000000001 
H  -3.4112999999999998  2.8945999999999987  5.2265999999999995 
C  3.1235  3.3793999999999986  2.9101999999999997 
H  2.9444999999999997  2.843  2.147500000000001 
C  -0.21039999999999992  3.3666  4.594100000000001 
C  4.3984000000000005  3.8948  3.087200000000001 
H  5.0799  3.7322999999999986  2.445500000000001 
C  0.08999999999999986  4.1472  5.758199999999999 
C  2.3877000000000006  4.437799999999999  4.989600000000001 
C  3.7101000000000006  4.9244  5.1395 
H  3.9245  5.449899999999998  5.9009 
C  1.3825000000000003  4.6358  5.927199999999999 
H  1.5856000000000003  5.126199999999999  6.715299999999999 
C  -2.1785  3.976799999999999  6.5061 
H  -2.859  4.212399999999999  7.1266 
C  4.6646  4.6631  4.2385 
H  5.540900000000001  5.004  4.376900000000001 
C  2.1632  -4.8493  0.9902999999999995 
C  2.4395000000000007  -7.116300000000001  -0.6441999999999997 
C  2.0502000000000002  -3.6325000000000003  1.808300000000001 
H  2.5244999999999997  -3.6267000000000005  2.631500000000001 
C  1.2437000000000005  -6.7365  -0.15939999999999976 
H  0.4820000000000002  -7.261700000000001  -0.37379999999999924 
C  1.0678  -5.604000000000001  0.6441999999999997 
C  3.4132999999999996  -5.268800000000001  0.5502000000000002 
C  -0.9116  4.390099999999999  6.726099999999999 
H  -0.6932999999999998  4.844899999999999  7.5306999999999995 
C  3.5298  -6.365000000000001  -0.26149999999999984 
H  4.391400000000001  -6.618100000000001  -0.5701 
C  2.6362000000000005  -8.339200000000002  -1.5626999999999995 
H  2.3208  -9.1452  -1.1042000000000005 
H  3.587300000000001  -8.436200000000001  -1.7781000000000002 
H  2.125400000000001  -8.2118  -2.3894 
C  -0.32179999999999964  -5.254200000000001  1.1051000000000002 
H  -0.30909999999999993  -5.0665000000000004  2.0671999999999997 
H  -0.9241000000000001  -6.007000000000001  0.9277999999999995 
H  -0.6368  -4.462700000000001  0.6218000000000004 
C  4.6211  -4.422900000000001  0.9090000000000007 
H  4.703200000000001  -3.6835000000000004  0.2705000000000002 
H  5.4299  -4.9762  0.8720999999999997 
H  4.5122  -4.0635  1.8132000000000001 
