24
unq_CSD-PERWUG-02-b
N  -0.7709999999999999  -0.9004  1.6699000000000002 
N  -0.738  1.5946000000000002  0.9299999999999999 
C  -1.1838  -0.01419999999999999  2.6215 
C  -0.8959999999999999  -2.2214  1.9247 
H  -0.6587  -2.8228999999999997  1.2578 
C  -1.3536  -2.7188  3.1155 
H  -1.4251  -3.6372999999999998  3.2539000000000002 
C  -1.7005  -1.835  4.089099999999999 
H  -1.9836  -2.1471999999999998  4.918399999999999 
C  -1.6353  -0.5019  3.8577 
H  -1.8925999999999998  0.09520000000000006  4.5222 
C  -1.1545999999999998  1.3443  2.2254 
C  -1.5474999999999999  2.5456000000000003  2.8268 
C  -1.3545  3.5109000000000004  1.871 
H  -1.5303  4.4176  1.9820000000000002 
C  -0.8558  2.9237  0.7101 
C  -2.1037  2.7723  4.2025 
H  -2.278  3.7072000000000003  4.3266 
H  -1.4676  2.4746  4.8575 
H  -2.9204999999999997  2.2774  4.3015 
C  -0.5243  3.6159  -0.5773 
H  -0.1983999999999999  2.9731  -1.2121 
H  0.1503000000000001  4.2806  -0.4198 
H  -1.3128  4.0378  -0.9257 
