16
unq_CSD-QOPLAK-02-b
N  0.6884000000000001  -1.8417  -0.8161 
N  1.5737000000000005  -0.3801  1.1532 
N  2.1704  0.2593  2.2005 
N  3.3057  -1.669  1.7390000000000003 
C  3.1847000000000003  -0.5308999999999999  2.4961 
H  3.7834000000000003  -0.3282  3.1786000000000003 
C  2.2755  -1.4896  0.9099 
C  1.8026  -2.3448  -0.18979999999999997 
C  2.3668000000000005  -3.5525  -0.552 
H  3.1161000000000003  -3.8772  -0.10739999999999994 
C  1.7907000000000002  -4.278  -1.5968 
H  2.1578999999999997  -5.0855  -1.874 
C  0.6673  -3.7687  -2.2061 
H  0.24510000000000032  -4.2509  -2.8808 
C  0.16480000000000006  -2.5428  -1.8176999999999999 
H  -0.5667999999999997  -2.1942  -2.2728 
