15
unq_CSD-JUHXIT-02-a
N  -0.0371  0.5574000000000003  1.8647 
N  -1.2919  -1.3483  0.6748 
C  0.5677  1.4250000000000007  2.7 
C  0.2056  1.1720000000000006  4.013 
C  -0.6645  0.08810000000000073  3.9813 
C  -0.802  -0.2767999999999997  2.6491 
C  -1.5154  -1.3011999999999997  1.9435 
C  -2.4554  -2.2245999999999997  2.6404 
H  -1.7077  -1.9136999999999995  0.2403 
H  1.0992  2.011  2.3357 
H  0.5162  1.7083000000000004  4.7867 
H  -1.0303  -0.34059999999999935  4.6714 
H  -2.6644  -1.8812999999999995  3.4122 
H  -2.1902  -3.1516999999999995  2.5087 
H  -3.2643  -2.3407999999999998  2.2396 
