35
unq_CSD-KEMQOJ-02-c
N  -1.4631  -1.3299999999999998  -0.6703999999999999 
N  0.12910000000000002  -0.6869999999999998  -1.991 
C  -0.9974000000000001  -1.4033999999999998  -1.9133 
C  -2.4238999999999997  -2.1784999999999997  -0.06840000000000002 
C  -3.4983999999999997  -1.6040999999999999  0.5735999999999999 
C  -4.4483999999999995  -2.3813999999999997  1.213 
C  -4.3168999999999995  -3.7599  1.2515999999999998 
C  -3.2077  -4.3203  0.6431 
C  -2.2704  -3.5408  -0.011800000000000033 
C  -5.3293  -4.6452  1.9824000000000002 
C  -1.6496  -2.1430999999999996  -3.0352 
C  0.6557  -0.07399999999999984  -3.1509 
C  -0.15489999999999998  0.4710000000000001  -4.1545000000000005 
C  0.4285  1.1425000000000005  -5.2081 
C  1.8078  1.2959999999999998  -5.3175 
C  2.5932000000000004  0.7619000000000002  -4.314 
C  2.0293  0.10890000000000022  -3.2346 
C  2.4410000000000003  2.0437  -6.471500000000001 
H  -3.5881  -0.6669999999999998  0.5775000000000001 
H  -5.1884  -1.9720999999999997  1.6234000000000002 
H  -3.0871  -5.251099999999999  0.6753 
H  -1.5276  -3.9459999999999997  -0.4196 
H  -5.9418999999999995  -4.0859  2.4854000000000003 
H  -4.8608  -5.237399999999999  2.5883000000000003 
H  -5.8267  -5.1688  1.3353000000000002 
H  -2.0496  -2.9591  -2.6955 
H  -0.9841  -2.3640999999999996  -3.7055 
H  -2.3365  -1.5855  -3.4327 
H  -1.0889  0.3803000000000001  -4.1094 
H  -0.1234  1.5070999999999999  -5.8759 
H  3.5276  0.8435999999999999  -4.368 
H  2.5833000000000004  -0.2145999999999999  -2.5476 
H  3.4011  2.0829  -6.3429 
H  2.0822000000000003  2.9437  -6.5100999999999996 
H  2.2455000000000003  1.5810999999999997  -7.3026 
