29
unq_CSD-KEXVEP-02-a
N  0.6338999999999997  -1.3218999999999999  -1.2302 
N  -1.1280000000000001  -1.6429999999999998  0.9386000000000001 
Si  2.1133999999999995  -1.3065999999999995  -2.0582000000000003 
C  2.681  0.46110000000000007  -2.2842000000000002 
H  2.0488999999999997  0.9349000000000007  -2.8648 
H  3.5705  0.4691000000000001  -2.6953 
H  2.7211  0.9056000000000006  -1.4125 
C  1.9768999999999997  -2.0997999999999997  -3.7525 
H  1.6761  -3.0276999999999994  -3.6566 
H  2.8534999999999995  -2.0852999999999997  -4.1924 
H  1.3305999999999996  -1.6008999999999998  -4.2948 
C  3.4555999999999996  -2.2734999999999994  -1.1534 
H  3.6365999999999996  -1.8507999999999996  -0.2881 
H  4.2741  -2.2795999999999994  -1.6924000000000001 
H  3.1535  -3.1959  -1.0094 
C  0.016499999999999737  -2.6335999999999995  -1.0030000000000001 
H  0.6459000000000001  -3.2066999999999997  -0.49760000000000004 
H  -0.15710000000000024  -3.0677999999999996  -1.8763 
C  -1.2859000000000003  -2.5222999999999995  -0.23370000000000002 
H  -1.9899  -2.1577999999999995  -0.8271000000000001 
H  -1.5713000000000001  -3.4225999999999996  0.06379999999999986 
C  -0.24029999999999996  -2.2533999999999996  1.9384000000000001 
H  -0.11299999999999999  -1.6317999999999997  2.6854 
H  0.6270999999999995  -2.4507999999999996  1.5274 
H  -0.6421000000000001  -3.0847999999999995  2.2679 
C  -2.4332000000000003  -1.3849999999999998  1.5594000000000001 
H  -2.7998000000000003  -2.2241  1.9112 
H  -3.047  -1.0162999999999998  0.8891999999999998 
H  -2.3257000000000003  -0.7432999999999996  2.2919 
