48
unq_CSD-KIGXOO-02-a
N  1.7828999999999997  -0.4626000000000001  -1.1806 
N  -0.5338000000000003  0.22609999999999975  -2.1609 
C  1.6617999999999995  -0.6375000000000002  -2.4793999999999996 
C  2.718399999999999  -1.1786000000000003  -3.2735999999999996 
H  3.4625000000000004  -1.4744000000000002  -2.7609999999999997 
C  2.8801000000000005  -1.3612000000000002  -4.6274 
H  3.7127999999999997  -1.7473999999999998  -4.8719 
C  2.0539000000000005  -1.0847000000000007  -5.6918999999999995 
H  2.3627000000000002  -1.2998000000000003  -6.5634 
C  0.8067000000000002  -0.5164  -5.5706999999999995 
H  0.35189999999999966  -0.3714000000000004  -6.3929 
C  0.11569999999999947  -0.1238999999999999  -4.4547 
H  -0.7155000000000005  0.2789999999999999  -4.6734 
C  0.3323999999999998  -0.17160000000000064  -3.0492 
C  3.0618999999999996  -0.6772  -0.4806999999999997 
H  3.7949  -0.7266000000000004  -1.1593 
C  3.3542000000000005  0.46859999999999946  0.47270000000000056 
H  2.6105  0.5552999999999999  1.1199000000000003 
H  3.4159000000000006  1.3145999999999995  -0.03869999999999951 
C  4.669599999999999  0.23609999999999953  1.2355 
H  5.419700000000001  0.18319999999999936  0.5928000000000004 
H  4.839  0.9989999999999997  1.8434 
C  4.6015999999999995  -1.0152999999999999  2.0206 
H  3.890599999999999  -0.9404000000000003  2.7048000000000005 
H  5.463900000000001  -1.1625000000000005  2.4861000000000004 
C  4.3072  -2.1985  1.1042000000000005 
H  5.068899999999999  -2.3334  0.4851000000000001 
H  4.206899999999999  -3.0194  1.6482 
C  3.0321  -1.9645000000000001  0.29660000000000064 
H  2.9057999999999993  -2.7188000000000003  -0.33150000000000013 
H  2.2589000000000006  -1.9514000000000005  0.9136000000000006 
C  -1.7899000000000003  0.8549999999999995  -2.5769999999999995 
H  -2.0792  0.4378000000000002  -3.4385 
C  -2.8898  0.6467999999999998  -1.5552000000000001 
H  -2.6045000000000003  1.0126  -0.6802999999999999 
H  -3.0609  -0.3212999999999999  -1.4429999999999996 
C  -4.1767  1.3485999999999994  -2.0128 
H  -4.4937000000000005  0.9373999999999993  -2.8551999999999995 
H  -4.8796  1.2256999999999998  -1.3274999999999997 
C  -3.9383  2.8248000000000006  -2.2316 
H  -4.7759  3.2479000000000005  -2.549 
H  -3.6894  3.2482999999999995  -1.3723999999999998 
C  -2.8517  3.0608999999999993  -3.2342999999999997 
H  -2.6728  4.032099999999999  -3.3082999999999996 
H  -3.1426000000000003  2.7337  -4.1227 
C  -1.5793  2.3373  -2.8158999999999996 
H  -0.8943000000000003  2.4560000000000004  -3.5214999999999996 
H  -1.2320000000000002  2.7506999999999993  -1.9858999999999996 
