68
unq_CSD-KIHSOL-02-a
N  2.2952  -0.1617  0.22999999999999954 
N  1.2400999999999998  0.6131  2.067 
C  3.4341  -0.5879  -0.5126 
C  4.1335999999999995  -1.7350999999999999  -0.13060000000000027 
C  5.1638  -2.2076000000000002  -0.9348000000000001 
H  5.6324  -2.9924000000000004  -0.6722999999999999 
C  5.5268  -1.5654  -2.1102999999999996 
C  4.8294  -0.4186  -2.4584 
H  5.0725  0.0378  -3.2558 
C  3.7931  0.08839999999999998  -1.6902 
C  3.7970999999999995  -2.4678  1.1456 
H  4.338699999999999  -3.2824  1.2072000000000003 
H  2.8459999999999996  -2.7057  1.1436000000000002 
H  3.9877  -1.8904999999999998  1.9140999999999995 
C  6.6601  -2.1018  -2.956500000000001 
H  6.827  -1.4916  -3.7053000000000003 
H  6.4181  -2.9865000000000004  -3.3030999999999997 
H  7.4693  -2.1764  -2.4083999999999994 
C  3.0483  1.3156  -2.1269 
H  3.5679  1.7868000000000002  -2.8106 
H  2.9105999999999996  1.9056  -1.3570000000000002 
H  2.1795999999999998  1.0552000000000001  -2.4986000000000006 
C  2.4446  0.40509999999999996  1.4421 
C  3.6559  0.7869000000000002  2.0702999999999996 
H  4.492  0.6537999999999999  1.6376 
C  3.5932999999999997  1.3509  3.3135999999999997 
H  4.3947  1.6184  3.7478 
C  2.3695  1.5388  3.9514 
H  2.3326  1.9193  4.8214 
C  1.2151999999999998  1.1637  3.3028 
C  -0.12340000000000018  1.3305  3.9391 
C  -0.6652  0.27740000000000004  4.7145 
C  -1.9062000000000001  0.46259999999999996  5.2986 
H  -2.2747  -0.2442  5.8151 
C  -2.6349  1.6336000000000002  5.1642 
C  -2.0804  2.6544  4.413 
H  -2.5623000000000005  3.4674  4.3156 
C  -0.8336000000000001  2.5290999999999997  3.7925999999999997 
C  0.1109  -1.0063  4.958 
H  0.8270999999999997  -1.0712  4.2639 
C  0.7764999999999997  -0.9804999999999999  6.3214999999999995 
H  1.3683999999999998  -0.2015  6.3815 
H  1.3005999999999998  -1.7983  6.4436 
H  0.0907  -0.9248000000000001  7.0188999999999995 
C  -0.7582  -2.2611  4.8628 
H  -1.2927  -2.2266  4.0421 
H  -1.3544999999999998  -2.3049  5.6392 
H  -0.18500000000000005  -3.0552  4.8451 
C  -3.9835000000000003  1.7599000000000002  5.8749 
H  -4.5440000000000005  0.9819  5.5889 
C  -3.7954  1.652  7.3934999999999995 
H  -3.3370000000000006  0.8119000000000001  7.6074 
H  -4.6708  1.6676  7.8337 
H  -3.2571000000000003  2.4065999999999996  7.711 
C  -4.7559000000000005  3.0244999999999997  5.53 
H  -4.8703  3.0816999999999997  4.558199999999999 
H  -4.258900000000001  3.8074999999999997  5.8477 
H  -5.6345  2.9987999999999997  5.963 
C  -0.23100000000000032  3.7144  3.0433 
H  0.5907999999999998  3.3876999999999997  2.5751 
C  0.19879999999999987  4.7899  4.0221 
H  0.8693999999999997  4.4241  4.6365 
H  -0.5794000000000001  5.0959  4.5329999999999995 
H  0.5846999999999998  5.5445  3.5288999999999997 
C  -1.1760000000000002  4.264200000000001  1.9805000000000001 
H  -0.7099000000000002  4.941800000000001  1.4482999999999997 
H  -1.955  4.6707  2.4139 
H  -1.4704000000000006  3.5345  1.3964999999999996 
