169
unq_CSD-CIVXIR-02-a
N  1.592600000000001  0.7333999999999996  1.2062000000000008 
N  1.6994000000000007  -1.1755000000000004  0.034399999999999764 
N  3.5172000000000025  -0.7586000000000004  1.4581999999999997 
C  1.9057999999999993  1.5730000000000004  2.3102 
C  3.1289000000000016  2.2744  2.3947000000000003 
C  3.4384000000000015  2.9771  3.5645000000000007 
H  4.265599999999999  3.4413  3.6144000000000016 
C  2.580300000000001  3.0213  4.655700000000001 
C  1.3132000000000001  2.462299999999999  4.480700000000001 
H  0.6782000000000004  2.5421999999999993  5.184299999999999 
C  0.9431000000000012  1.7956000000000003  3.3253000000000004 
C  3.9802999999999997  2.474499999999999  1.1399000000000008 
H  3.9963000000000015  1.599499999999999  0.6569000000000003 
C  5.4391  2.8695000000000004  1.4060000000000006 
C  6.1768  2.2201000000000004  2.3961000000000006 
H  5.753900000000002  1.5587  2.9330999999999996 
C  7.5152  2.5199999999999996  2.613200000000001 
H  7.9954  2.0679999999999996  3.2954000000000008 
C  8.150000000000002  3.472199999999999  1.8415 
H  9.070600000000002  3.6663999999999994  1.9784000000000006 
C  7.4349000000000025  4.139199999999999  0.8689999999999998 
H  7.863500000000002  4.8019  0.3401999999999994 
C  6.0858000000000025  3.8513  0.6533999999999995 
H  5.602800000000002  4.3277  -0.010699999999999932 
C  3.270500000000002  3.4762000000000004  0.22799999999999976 
C  3.3869000000000007  3.376999999999999  -1.1562000000000001 
H  3.9003000000000014  2.6701999999999995  -1.5305 
C  2.7700999999999993  4.288  -1.9999000000000002 
H  2.8590000000000018  4.196899999999999  -2.940899999999999 
C  2.025500000000001  5.3306000000000004  -1.472199999999999 
H  1.6021  5.956999999999999  -2.0478000000000005 
C  1.9060000000000024  5.4505  -0.09759999999999991 
H  1.3979000000000017  6.1625  0.2718000000000007 
C  2.5259  4.5344999999999995  0.7453000000000003 
H  2.4406  4.631599999999999  1.6867999999999999 
C  2.9384000000000015  3.7027  5.9838000000000005 
C  2.7181999999999995  2.7067999999999994  7.129900000000001 
H  1.7832000000000008  2.417  7.1347000000000005 
H  2.9311000000000007  3.1388  7.984599999999999 
H  3.300900000000002  1.9286999999999992  7.002599999999999 
C  2.0116000000000014  4.908099999999999  6.2003 
H  2.1614000000000004  5.565899999999999  5.489600000000001 
H  2.2052000000000014  5.316799999999999  7.0687000000000015 
H  1.0790000000000006  4.6105  6.1800000000000015 
C  4.3870000000000005  4.1783  6.013499999999999 
H  4.984500000000001  3.418799999999999  5.849600000000001 
H  4.584600000000002  4.5655  6.8909 
H  4.523  4.8567  5.3187000000000015 
C  -0.5296999999999983  1.4684999999999988  3.0828000000000007 
H  -0.5561999999999987  0.6665999999999999  2.4864999999999995 
C  -1.2216999999999985  2.6107999999999993  2.3320000000000007 
C  -0.8054999999999986  3.944099999999999  2.4091000000000005 
H  -0.03369999999999962  4.165899999999999  2.9148999999999994 
C  -1.508799999999999  4.950199999999999  1.7528000000000006 
H  -1.2227999999999994  5.8529  1.8279999999999994 
C  -2.617799999999999  4.6457  0.9939 
H  -3.0901999999999994  5.335099999999999  0.5428999999999995 
C  -3.0397  3.327  0.8909000000000002 
H  -3.8001999999999985  3.112  0.3628999999999998 
C  -2.3518999999999988  2.3193  1.5587 
H  -2.6538999999999984  1.4207999999999998  1.4885000000000002 
C  -1.3066999999999993  1.1101999999999999  4.350800000000001 
C  -1.8527999999999984  2.0764999999999993  5.1838999999999995 
H  -1.7646999999999995  2.9951999999999988  4.961 
C  -2.5330999999999992  1.7077999999999989  6.348000000000001 
H  -2.8895999999999997  2.3789999999999996  6.9183 
C  -2.6891  0.3935999999999993  6.669700000000001 
H  -3.1601  0.1487999999999996  7.4582999999999995 
C  -2.165899999999999  -0.5730000000000004  5.8530999999999995 
H  -2.2741999999999987  -1.4890000000000008  6.0798000000000005 
C  -1.4804999999999993  -0.22829999999999995  4.696900000000001 
H  -1.1266999999999996  -0.9093  4.1362000000000005 
C  2.419800000000002  -2.2564  -0.5495999999999999 
C  3.493400000000001  -1.9861000000000004  -1.4296000000000006 
C  4.2622  -3.0326000000000004  -1.9099000000000004 
H  5.0412  -2.8327  -2.4169 
C  3.9391  -4.3696  -1.6798000000000002 
C  2.757999999999999  -4.620900000000001  -0.9725000000000001 
H  2.4574999999999996  -5.5173000000000005  -0.8879999999999999 
C  2.006800000000002  -3.5964000000000005  -0.38759999999999906 
C  3.6281999999999996  -0.5900000000000007  -2.0420999999999996 
H  3.4594000000000023  0.07569999999999943  -1.3140999999999998 
C  2.5366  -0.39890000000000025  -3.1090999999999998 
C  1.7764000000000024  -1.4501  -3.6195000000000004 
H  1.9212000000000025  -2.3318000000000003  -3.2987 
C  0.8138000000000005  -1.2257000000000007  -4.587899999999999 
H  0.3030000000000008  -1.9547000000000008  -4.918699999999999 
C  0.5858000000000008  0.05009999999999959  -5.0812 
H  -0.08149999999999835  0.20229999999999926  -5.739 
C  1.3493000000000013  1.0992999999999995  -4.5963 
H  1.2087000000000003  1.9765999999999995  -4.9323999999999995 
C  2.312100000000001  0.8819999999999997  -3.6302000000000003 
H  2.8302000000000014  1.6120999999999999  -3.3146000000000004 
C  5.016000000000002  -0.30930000000000035  -2.6096000000000004 
C  5.9404  0.4211999999999998  -1.873899999999999 
H  5.6812000000000005  0.7946999999999997  -1.0405999999999995 
C  7.2393  0.6163999999999996  -2.3351000000000006 
H  7.861800000000002  1.1111999999999993  -1.8153000000000006 
C  7.6224000000000025  0.08369999999999944  -3.5623000000000005 
H  8.514  0.19669999999999987  -3.8728999999999996 
C  6.703099999999999  -0.6096000000000004  -4.327 
H  6.958100000000002  -0.9613000000000005  -5.1716 
C  5.406500000000001  -0.7930000000000001  -3.8635 
H  4.7774  -1.2526000000000002  -4.406000000000001 
C  4.755000000000003  -5.513800000000001  -2.2974999999999994 
C  6.110300000000002  -5.0198  -2.8245000000000005 
H  5.963100000000001  -4.376200000000001  -3.5493000000000006 
H  6.625299999999999  -5.7804  -3.1641999999999992 
H  6.605499999999999  -4.5872  -2.097899999999999 
C  3.9482  -6.0818  -3.4762000000000004 
H  3.0930999999999997  -6.430400000000001  -3.148299999999999 
H  4.4557  -6.806100000000001  -3.9002 
H  3.7837999999999994  -5.372400000000001  -4.1303 
C  5.013200000000001  -6.6143  -1.2546 
H  5.532600000000002  -6.2433000000000005  -0.5097000000000005 
H  5.5154  -7.3464  -1.6694999999999993 
H  4.158799999999999  -6.9539  -0.9199000000000002 
C  0.6707000000000001  -3.9210000000000003  0.2704000000000004 
H  0.2729000000000017  -3.0395000000000003  0.5246999999999993 
C  -0.2823999999999991  -4.5214  -0.7704000000000004 
C  -0.7105999999999995  -3.7183  -1.8313000000000006 
H  -0.382299999999999  -2.8299000000000003  -1.9064999999999994 
C  -1.606399999999999  -4.1961  -2.7764000000000006 
H  -1.8821999999999992  -3.6375  -3.4946 
C  -2.1019999999999985  -5.489000000000001  -2.6761999999999997 
H  -2.7264999999999997  -5.811400000000001  -3.3146000000000004 
C  -1.6808999999999994  -6.3075  -1.6408000000000005 
H  -2.0073999999999987  -7.1973  -1.5738000000000003 
C  -0.7767  -5.822500000000001  -0.6990999999999996 
H  -0.48959999999999937  -6.391100000000001  0.007500000000000284 
C  0.6908000000000012  -4.7493  1.5488999999999997 
C  1.7401000000000018  -5.5581000000000005  1.9586000000000006 
H  2.533100000000001  -5.600300000000001  1.4360999999999997 
C  1.6448  -6.311800000000001  3.1309000000000005 
H  2.3744000000000014  -6.8582  3.4002 
C  0.49490000000000123  -6.2700000000000005  3.9072000000000013 
H  0.42850000000000144  -6.787800000000001  4.701300000000002 
C  -0.5521999999999991  -5.4589  3.5008999999999997 
H  -1.3415999999999997  -5.413200000000001  4.0245000000000015 
C  -0.45730000000000004  -4.718  2.343 
H  -1.1906999999999996  -4.1736  2.0786999999999995 
C  2.2752000000000017  -0.4054000000000002  0.9699000000000009 
C  3.9589999999999996  -1.4356  2.447800000000001 
C  5.444400000000002  -1.8850000000000007  2.2985000000000007 
C  6.1005  -1.1687000000000003  1.1075999999999997 
H  6.031600000000001  -0.19870000000000054  1.2310999999999996 
H  5.642400000000002  -1.4256000000000002  0.27860000000000085 
H  7.0457  -1.4256000000000002  1.0511 
C  6.3202  -1.6190000000000007  3.534699999999999 
H  7.2392  -1.9097  3.3523999999999994 
H  5.964100000000002  -2.1179000000000006  4.3001999999999985 
H  6.315300000000001  -0.6602000000000006  3.737399999999999 
C  5.443000000000001  -3.3939000000000004  1.953100000000001 
H  6.348200000000002  -3.6727000000000003  1.7027 
H  4.832599999999999  -3.5573000000000006  1.2036999999999995 
H  5.1479  -3.9076000000000004  2.7325999999999997 
C  3.1240000000000023  -1.7719000000000005  3.7094000000000005 
C  3.4216000000000015  -0.6609000000000007  4.750000000000002 
H  3.270199999999999  0.21779999999999955  4.343500000000001 
H  4.354800000000001  -0.7292000000000005  5.043000000000001 
H  2.8287000000000013  -0.7700000000000005  5.521500000000001 
C  1.6212000000000018  -1.7632000000000003  3.4159000000000006 
H  1.1329000000000011  -2.0827  4.202299999999999 
H  1.4328000000000003  -2.3515000000000006  2.655100000000001 
H  1.3354000000000017  -0.8502000000000001  3.202 
C  3.424900000000001  -3.1415  4.353600000000002 
H  2.8835000000000015  -3.2477000000000005  5.161499999999998 
H  4.3751  -3.1901000000000006  4.589599999999999 
H  3.2093000000000025  -3.8556000000000004  3.719199999999999 
