21
unq_CSD-CIWTIM-02-a
N  -2.0413  -0.8068999999999997  0.19229999999999947 
N  0.19820000000000015  -1.8064999999999998  1.0106000000000002 
N  -2.1515  -1.9112  0.8580000000000005 
C  -1.0032999999999999  -2.4314  1.2600999999999996 
C  -0.7914  -3.6315999999999997  2.005699999999999 
H  -1.4378  -4.2235  2.3146000000000004 
C  0.5844000000000003  -3.7275  2.1761 
H  1.0456  -4.4052999999999995  2.615499999999999 
C  1.1458000000000002  -2.5835  1.5423999999999989 
H  2.0557999999999996  -2.3994999999999997  1.5051000000000005 
C  -3.3238  -0.2623999999999995  -0.16460000000000008 
C  -4.4891  -0.7230999999999996  0.3733000000000004 
H  -4.4685  -1.4153000000000002  0.9938000000000002 
C  -5.7094  -0.1654  0.0031999999999996476 
H  -6.4973  -0.5060000000000002  0.35999999999999943 
C  -5.7612  0.8650000000000002  -0.8703000000000003 
H  -6.5793  1.2497000000000007  -1.0885999999999996 
C  -4.6033  1.3434000000000008  -1.4321000000000002 
H  -4.6392  2.0531000000000006  -2.0313 
C  -3.3785  0.7703000000000007  -1.1098999999999997 
H  -2.5999999999999996  1.0710999999999995  -1.5173000000000005 
