40
unq_CSD-CIYHUP-02-a
N  -0.6276000000000002  -0.3373999999999999  -1.7519 
N  1.6946999999999992  0.14440000000000008  -0.8575999999999999 
C  0.3920999999999992  -0.42189999999999994  -2.6911 
C  -0.188600000000001  -0.7082999999999999  -3.9626 
C  -1.5665000000000004  -0.8191999999999999  -3.7541 
C  -1.7862999999999998  -0.5920999999999998  -2.3783 
H  -2.6361  -0.6146  -1.9550999999999998 
C  1.6372999999999998  -0.11169999999999991  -2.154 
H  2.4168000000000003  -0.08530000000000015  -2.6972 
C  2.9175000000000004  0.6789000000000001  -0.3258000000000001 
C  0.3582000000000001  -0.8548  -5.297499999999999 
C  1.7318999999999996  -0.8217999999999999  -5.559200000000001 
H  2.335799999999999  -0.6686999999999999  -4.8416 
C  2.2304999999999993  -1.0052999999999999  -6.8328 
H  3.1648999999999994  -0.9563999999999999  -6.9963 
C  1.3398000000000003  -1.264  -7.8733 
H  1.6709999999999994  -1.4144  -8.7503 
C  -0.008000000000000895  -1.3022  -7.6443 
H  -0.5942000000000007  -1.4725  -8.3721 
C  -0.5507000000000009  -1.0977  -6.3687000000000005 
C  -2.0018000000000002  -1.1016  -6.15 
C  -2.9329  -1.1767999999999998  -7.2191 
H  -2.6131  -1.2059  -8.1145 
C  -4.2854  -1.2046  -6.9881 
H  -4.886900000000001  -1.2626  -7.72 
C  -4.779400000000001  -1.1491  -5.6899999999999995 
H  -5.7156  -1.1795  -5.5326 
C  -3.9017  -1.0514999999999999  -4.641299999999999 
H  -4.246  -1.0198  -3.7561 
C  -2.5159000000000002  -0.996  -4.8273 
C  4.104900000000001  -0.025900000000000034  -0.4771000000000001 
H  4.119  -0.8639999999999999  -0.9248000000000001 
C  5.278700000000001  0.5232000000000001  0.042100000000000026 
H  6.099600000000001  0.05730000000000013  -0.07030000000000003 
C  5.2730999999999995  1.7283000000000004  0.7166999999999999 
H  6.08  2.0912  1.0602 
C  4.0738  2.4000999999999997  0.8864000000000001 
H  4.0565999999999995  3.2277  1.3525 
C  2.8947000000000003  1.8655000000000004  0.3729 
H  2.0703999999999994  2.3196  0.5062000000000002 
