18
unq_CSD-YEHMAZ-02-a
N  0.5009  -0.8856000000000002  -1.5939 
N  0.029100000000000015  1.5525000000000002  -1.1333000000000002 
C  0.892  -2.1194000000000006  -2.0396 
C  1.3556000000000004  -2.0299000000000005  -3.3413000000000004 
C  1.2537000000000003  -0.6943000000000001  -3.7251000000000003 
C  0.7367  -0.023800000000000487  -2.6345 
C  0.42920000000000014  1.3468999999999998  -2.353 
C  0.5656  2.3870000000000005  -3.4149000000000003 
C  -0.42499999999999993  2.9041999999999994  -0.7538 
H  0.8470000000000001  -2.928  -1.5236 
H  1.6866000000000003  -2.7543000000000006  -3.8765 
H  1.4927000000000001  -0.3174000000000001  -4.5748999999999995 
H  0.3207000000000001  3.241299999999999  -3.0513000000000003 
H  1.4757000000000002  2.4177999999999997  -3.7177 
H  -0.010999999999999899  2.1759000000000004  -4.1527 
H  -0.30439999999999995  3.4976000000000003  -1.4980000000000002 
H  -1.3538  2.8759999999999994  -0.5139 
H  0.08930000000000005  3.2188999999999997  -0.006400000000000183 
