21
unq_CSD-YEHMIH-02-a
N  1.4127  0.6793  1.0586000000000002 
N  1.157  -1.5165  -0.20150000000000023 
C  1.8153000000000001  1.8409  1.6281999999999996 
C  3.1686  1.7981  1.92 
C  3.6336999999999997  0.5540999999999999  1.500399999999999 
C  2.5382000000000002  -0.10700000000000001  0.9599999999999991 
C  2.3364999999999996  -1.3633  0.31400000000000006 
C  3.4353000000000002  -2.3916  0.2945000000000002 
C  0.7437  -2.8295999999999997  -0.7197000000000005 
C  -0.4487000000000001  -3.3541  0.005499999999999616 
H  1.2366000000000001  2.5893  1.7894000000000005 
H  3.6869  2.4889  2.3394999999999992 
H  4.5298  0.2166  1.5699000000000005 
H  3.1331  -3.1746  -0.1722999999999999 
H  4.198  -2.0244  -0.15559999999999974 
H  3.6777  -2.6288  1.1934000000000005 
H  1.4693  -3.4488  -0.6127000000000002 
H  0.5394999999999999  -2.7638  -1.6547 
H  -0.7045000000000001  -4.2152  -0.3334999999999999 
H  -0.23670000000000013  -3.4274  0.9376999999999995 
H  -1.1747  -2.7365999999999997  -0.11120000000000019 
