45
unq_CSD-YOXDOG-02-a
N  -0.0951000000000004  0.9324999999999992  2.3439 
N  1.860599999999999  0.9818999999999996  1.2360000000000002 
Si  -1.1724000000000006  0.8796999999999997  3.7092000000000005 
N  1.0583  2.4719999999999995  -1.1753999999999998 
C  -2.8616  0.4862000000000002  3.1516000000000006 
H  -3.4564000000000004  0.4573999999999998  3.9186 
H  -2.8641  -0.3764000000000003  2.7081000000000004 
H  -3.1651000000000002  1.1685999999999996  2.5318 
C  -0.6278000000000006  -0.4900000000000002  4.828899999999999 
H  -1.2200000000000006  -0.5349000000000004  5.5959 
H  0.27890000000000015  -0.3202999999999996  5.129199999999999 
H  -0.6574  -1.3312000000000008  4.3467 
C  -1.255  2.414999999999999  4.706899999999999 
H  -1.8773  2.2912  5.440999999999999 
H  -1.5559000000000003  3.1479999999999997  4.1472 
H  -0.37460000000000004  2.6188000000000002  5.061399999999999 
C  1.1859000000000002  1.3155999999999999  2.3226 
C  1.819  2.1172000000000004  3.4208000000000003 
C  2.6884000000000006  1.5146999999999995  4.3233999999999995 
H  2.8564  0.5915999999999997  4.259499999999999 
C  3.304099999999999  2.245899999999999  5.3111999999999995 
H  3.9050000000000002  1.8293999999999997  5.901999999999999 
C  3.0363999999999995  3.5863999999999994  5.4274000000000004 
H  3.441299999999999  4.0847999999999995  6.115 
C  2.1933  4.2011  4.559699999999999 
H  2.0184000000000006  5.121099999999998  4.6411 
C  1.5907  3.4597999999999995  3.5486999999999997 
H  1.0145999999999997  3.8893000000000004  2.9444000000000004 
C  3.2212000000000005  1.4393999999999991  0.9784000000000002 
H  3.717299999999999  0.7369000000000003  0.5078 
H  3.6732000000000005  1.6084999999999994  1.8325999999999998 
C  3.2299999999999995  2.7088  0.14360000000000017 
H  2.7947999999999995  3.4216999999999995  0.6549999999999998 
H  4.1613999999999995  2.9786  -0.0035999999999996035 
C  2.5469  2.5996000000000006  -1.1985999999999999 
H  2.7784000000000004  3.3919999999999995  -1.7254999999999998 
H  2.9134  1.819799999999999  -1.6654 
C  0.6135999999999999  2.484399999999999  -2.5911999999999997 
H  0.9401000000000002  3.2873  -3.0250999999999997 
H  -0.3551000000000002  2.4688  -2.6261 
H  0.9668000000000001  1.7044999999999995  -3.0463999999999998 
C  0.4759000000000002  3.6602999999999994  -0.4935999999999998 
H  0.8328999999999995  4.4696  -0.8925999999999998 
H  0.7038000000000002  3.6359999999999992  0.44970000000000043 
H  -0.4895000000000005  3.6494999999999997  -0.5924 
