16
unq_CSD-YOZTAL-02-b
N  1.3731000000000009  1.4716000000000005  0.5442 
N  -0.8451000000000004  1.7907000000000002  -0.8411000000000002 
N  2.5253999999999994  1.4933000000000005  1.2654 
C  -1.9848999999999997  1.8540999999999999  -1.5665 
H  -2.468399999999999  1.0907999999999998  -1.7828 
C  2.0511999999999997  3.6109  0.6679999999999997 
H  2.1046999999999993  4.5355  0.5768 
C  1.0530000000000008  2.7552000000000003  0.16860000000000008 
C  -0.17639999999999922  2.9111000000000002  -0.5907 
C  2.9438999999999993  2.7641999999999998  1.3321 
H  3.7216000000000005  3.0453  1.7594000000000003 
C  -0.7027000000000001  4.109500000000001  -1.0466000000000002 
H  -0.21940000000000026  4.881800000000001  -0.8629 
N  -1.8186  4.250900000000001  -1.7121 
C  -2.3973999999999993  3.1231999999999998  -1.9733 
H  -3.1714  3.1631  -2.4864 
