43
unq_CSD-FUHRAD-02-a
N  0.5414000000000012  0.888399999999999  1.7430999999999983 
N  -1.9915000000000003  -0.14830000000000076  -0.11470000000000091 
N  0.7896999999999998  1.0208999999999993  3.9505000000000017 
N  -4.1457999999999995  0.4867999999999988  -0.12979999999999947 
C  1.8507999999999996  1.3127999999999993  2.0364000000000004 
C  2.908100000000001  1.6639  1.1948000000000008 
H  2.8063000000000002  1.658999999999999  0.2508999999999997 
C  4.093900000000001  2.014099999999999  1.7744 
H  4.834199999999999  2.226799999999999  1.2175000000000011 
C  4.249300000000002  2.0694999999999997  3.161200000000001 
H  5.086000000000002  2.326699999999999  3.5275999999999996 
C  3.2135999999999996  1.7578999999999994  4.0078 
H  3.3111999999999995  1.7965  4.951699999999999 
C  2.006400000000001  1.3810000000000002  3.41 
C  -0.025599999999998957  0.7202000000000002  2.9253 
C  -1.4377999999999993  0.2394999999999996  3.1660000000000004 
H  -1.7408000000000001  -0.2561  2.3643 
H  -1.4265999999999988  -0.3996000000000013  3.9229999999999983 
C  -2.4480000000000004  1.3196999999999992  3.4692000000000007 
C  -2.8339999999999996  1.5085999999999995  4.7882 
H  -2.4467  0.9794  5.4754000000000005 
C  -3.7925000000000004  2.478999999999999  5.1091000000000015 
H  -4.061299999999999  2.6016999999999992  6.011600000000001 
C  -4.3415  3.2476000000000003  4.121700000000001 
H  -4.9908  3.9054  4.341100000000001 
C  -3.9575999999999993  3.0725  2.8155 
H  -4.351799999999999  3.6125999999999987  2.140699999999999 
C  -3.001899999999999  2.116999999999999  2.4574 
C  -2.5504  2.0199999999999996  1.0259 
H  -2.9336  2.788599999999999  0.5323999999999991 
H  -1.5664999999999996  2.1249000000000002  1.0085000000000015 
C  -2.8956  0.7656999999999989  0.26950000000000074 
C  -2.7043999999999997  -1.0791000000000004  -0.8586000000000009 
C  -2.310599999999999  -2.2602  -1.4914000000000005 
H  -1.4095999999999993  -2.5580000000000007  -1.4629999999999992 
C  -3.2828999999999997  -2.9804000000000004  -2.1606000000000005 
H  -3.0429999999999993  -3.7915  -2.5931999999999995 
C  -4.606  -2.5501000000000005  -2.2165 
H  -5.2418  -3.0605  -2.7028999999999996 
C  -5.007  -1.406600000000001  -1.5831 
H  -5.9109  -1.1187000000000005  -1.6182999999999996 
C  -4.043199999999999  -0.672600000000001  -0.8830000000000009 
H  0.676400000000001  0.9674999999999994  4.806799999999999 
