13
unq_CSD-GAYHOF-02-a
N  -1.5544000000000002  1.3379000000000003  0.124 
N  0.8596999999999992  1.367  1.082 
C  -1.6318000000000001  3.7758000000000003  0.2296 
H  -1.3724000000000007  4.5382  0.7876 
H  -2.6060000000000003  3.7651000000000003  0.1233 
H  -1.2079000000000004  3.8560999999999996  -0.6502 
C  0.13539999999999974  2.4682000000000004  1.2642 
H  -1.8491000000000009  1.5792000000000002  -0.6557 
H  -2.2416  1.0464000000000002  0.523 
N  -1.1975000000000007  2.5316  0.8698 
N  2.0723000000000003  1.6327999999999996  1.6358 
N  2.0359  2.8414  2.1274 
N  0.8062999999999994  3.4122000000000003  1.9151 
