56
unq_CSD-PIFSII-02-a
N  1.0873000000000008  1.706900000000001  1.1683000000000003 
N  1.9198000000000004  -0.32319999999999993  0.7348000000000017 
C  2.1929999999999996  0.9077999999999999  1.2399000000000004 
C  1.0887000000000011  2.928000000000001  1.7082999999999995 
C  2.2438000000000002  3.4567000000000014  2.255000000000001 
H  2.2462999999999997  4.342600000000001  2.5984 
C  3.3995999999999995  2.6862000000000013  2.298 
H  4.1968  3.0500000000000007  2.6655999999999995 
C  3.396700000000001  1.3969000000000005  1.8108999999999984 
H  4.1739  0.8539000000000012  1.8575999999999997 
C  -0.2301000000000002  3.639100000000001  1.8221000000000007 
C  -0.8234999999999992  3.7216000000000005  3.087300000000001 
C  -2.0884  4.3788  3.203000000000001 
H  -2.5142999999999995  4.444800000000001  4.048299999999999 
C  -2.6901  4.9152000000000005  2.0833999999999993 
H  -3.5310999999999995  5.3483  2.167299999999999 
C  -2.0961999999999996  4.8339  0.8498999999999999 
H  -2.5313999999999997  5.2109000000000005  0.09420000000000073 
C  -0.8668999999999993  4.2096  0.6913 
C  -0.24279999999999902  4.1304  -0.6801999999999992 
H  0.7303999999999995  4.2118  -0.6018000000000008 
H  -0.5883000000000003  4.8581  -1.238199999999999 
H  -0.46640000000000015  3.268700000000001  -1.0907 
C  -0.17849999999999966  3.1148000000000007  4.309500000000002 
H  0.07939999999999969  2.189400000000001  4.115499999999999 
H  -0.8138000000000005  3.129100000000001  5.0541 
H  0.617700000000001  3.6325000000000003  4.548399999999999 
C  2.8787000000000003  -1.376199999999999  0.8834999999999997 
C  2.5760000000000005  -2.431399999999999  1.7792000000000012 
C  3.5221  -3.4513999999999996  1.9433999999999987 
H  3.3238000000000003  -4.1746  2.5275000000000016 
C  4.7226  -3.4349  1.288400000000001 
H  5.3612  -4.120699999999999  1.4452000000000016 
C  5.0054  -2.4105  0.38899999999999935 
H  5.8355999999999995  -2.4082999999999997  -0.07000000000000028 
C  4.0859000000000005  -1.3838999999999988  0.15390000000000015 
C  4.4123  -0.3583999999999996  -0.9208999999999996 
H  3.7025000000000006  0.34609999999999985  -0.9060000000000006 
C  5.765799999999999  0.32310000000000016  -0.7454999999999998 
H  5.803599999999999  0.7550000000000008  0.13339999999999996 
H  5.885999999999999  0.9979000000000013  -1.4472000000000005 
H  6.48  -0.3462999999999994  -0.8108000000000004 
C  4.3689  -1.0650999999999993  -2.3018 
H  4.9811  -1.8300999999999998  -2.2962000000000007 
H  4.639800000000001  -0.4341999999999988  -3.0016 
H  3.4570000000000007  -1.3783999999999992  -2.4791000000000007 
C  1.2758000000000003  -2.4292  2.583499999999999 
H  0.5824999999999996  -1.9707999999999988  2.0273999999999983 
C  1.462200000000001  -1.5904999999999987  3.861700000000001 
H  2.0693  -2.0576999999999988  4.473799999999999 
H  0.5942000000000007  -1.460799999999999  4.298399999999999 
H  1.8444000000000003  -0.7177999999999987  3.6266000000000016 
C  0.746500000000001  -3.8305999999999996  2.908199999999999 
H  0.7360000000000007  -4.373499999999999  2.092699999999999 
H  -0.16389999999999993  -3.7623999999999995  3.266399999999999 
H  1.3274000000000008  -4.253699999999999  3.574299999999999 
