26
unq_CSD-GINCUE-02-a
N  -0.9657  -1.8399999999999999  -1.0012000000000008 
N  -1.4054000000000002  -1.6658  0.2414999999999985 
C  -0.8647000000000009  -2.6928  -3.2345000000000006 
C  -2.5742000000000003  -3.5633999999999997  -1.5084 
C  -1.4451999999999998  -2.6648  -1.8951000000000011 
C  -1.5319000000000003  -3.3623  -4.2622 
H  -2.3473000000000006  -3.8128  -4.0748000000000015 
C  -2.3212  -4.853  -1.075800000000001 
H  -1.427200000000001  -5.172000000000001  -1.0574000000000012 
C  0.3307000000000002  -2.0423  -3.540000000000001 
H  0.7977999999999987  -1.5734  -2.8581000000000003 
C  0.8445999999999998  -2.0725  -4.8298000000000005 
H  1.6653000000000002  -1.6356  -5.021800000000001 
C  -3.8883  -3.1155999999999997  -1.5175 
H  -4.0837  -2.2312  -1.8036000000000012 
C  -1.0277000000000012  -3.3805  -5.545 
H  -1.5022000000000002  -3.8346  -6.230400000000001 
C  -3.3524000000000003  -5.6894  -0.668800000000001 
H  -3.1610000000000005  -6.5716  -0.3719999999999999 
C  -4.9172  -3.9497  -1.1113 
H  -5.8124  -3.6292999999999997  -1.1182000000000016 
C  0.1612999999999989  -2.7413  -5.8408000000000015 
H  0.5068999999999999  -2.7569  -6.725200000000001 
C  -4.6554  -5.2367  -0.6976000000000013 
H  -5.367000000000001  -5.808  -0.4347999999999992 
H  -2.1234  -2.1177  0.4189000000000007 
