40
unq_CSD-GIVMUW-02-b
N  -1.0076  1.7744  0.2791999999999999 
N  1.2375000000000007  0.8680000000000003  1.4298000000000002 
N  -1.1098999999999997  5.331100000000001  3.6985 
N  0.8420000000000005  4.584900000000001  4.663399999999999 
C  -2.1506000000000007  2.1678000000000006  -0.2801 
H  -2.479000000000001  1.6812000000000005  -1.0269 
C  -2.8869000000000007  3.2575000000000003  0.17689999999999984 
H  -3.6981  3.5005000000000006  -0.2517999999999998 
C  -2.4284999999999997  3.9792000000000005  1.2563000000000004 
H  -2.9175000000000004  4.7271  1.5785 
C  -1.2225000000000001  3.5913000000000004  1.8761999999999999 
C  -0.650500000000001  4.2372  3.0118 
C  0.5373999999999999  3.7866  3.5938 
C  1.252699999999999  2.664300000000001  3.0744999999999996 
C  2.4723000000000006  2.1745  3.5827999999999998 
H  2.8970999999999982  2.6075999999999997  4.3129 
C  3.036200000000001  1.0663  3.0113000000000003 
H  3.863900000000001  0.7313000000000001  3.3346999999999998 
C  2.3887  0.4306000000000001  1.9493 
H  2.7855999999999987  -0.3495999999999997  1.5785 
C  0.6874000000000002  1.9906000000000006  1.9642999999999997 
C  -0.5360999999999994  2.4743000000000004  1.3499999999999996 
C  -0.17159999999999975  5.487  4.666499999999999 
C  -0.24220000000000041  6.587  5.6388 
C  0.6442999999999994  6.6264  6.7478 
H  1.2767999999999997  5.928100000000001  6.867900000000001 
C  0.5982000000000003  7.6592  7.6472999999999995 
H  1.1941000000000006  7.6629000000000005  8.387 
C  -0.32370000000000054  8.7186  7.4886 
C  -0.3614999999999995  9.8284  8.3726 
H  0.21770000000000067  9.8507  9.125 
C  -1.2270000000000003  10.8674  8.1493 
H  -1.2409  11.607199999999999  8.7441 
C  -2.0924999999999994  10.842200000000002  7.044700000000001 
H  -2.6875  11.568000000000001  6.896000000000001 
C  -2.0891  9.7794  6.176399999999999 
H  -2.6842000000000006  9.7733  5.434799999999999 
C  -1.2070000000000007  8.693100000000001  6.377000000000001 
C  -1.1522000000000006  7.604100000000001  5.474600000000001 
H  -1.7553999999999998  7.575900000000001  4.741199999999999 
