38
unq_CSD-UHIGIC-02-a
N  0.9058999999999999  1.7540999999999998  0.20089999999999897 
N  -0.5304000000000002  0.14149999999999996  -1.8793000000000006 
Si  -1.1376  -1.339  -2.6008000000000013 
C  1.5508999999999995  2.0191  1.3651 
H  1.6160999999999994  1.3325  2.0016999999999996 
C  2.1094999999999997  3.2251999999999996  1.6598999999999986 
H  2.5404  3.3728000000000002  2.4807999999999986 
C  2.019  4.2325  0.7059999999999995 
H  2.3847999999999994  5.0817000000000005  0.8763999999999985 
C  1.3952999999999998  3.9765  -0.4737000000000009 
H  1.3367999999999993  4.655600000000001  -1.1202000000000005 
C  0.8393999999999995  2.7207999999999997  -0.7447000000000017 
C  0.21699999999999964  2.4587999999999997  -2.0025000000000013 
H  0.21169999999999956  3.1906  -2.5928000000000004 
C  -0.37480000000000047  1.3234999999999997  -2.5028000000000006 
C  -0.9146999999999998  1.4770999999999996  -3.893700000000001 
C  -0.15000000000000036  1.2511999999999999  -5.001000000000001 
H  0.7595999999999998  1.0329000000000002  -4.9045000000000005 
C  -0.7113000000000005  1.3415999999999997  -6.277400000000001 
H  -0.18200000000000038  1.1654  -7.033000000000001 
C  -2.0013  1.6787999999999998  -6.431700000000001 
H  -2.3723  1.7361  -7.293400000000001 
C  -2.7606  1.9348  -5.357900000000001 
H  -3.6583000000000006  2.1893  -5.467200000000001 
C  -2.2273  1.8264  -4.094600000000001 
H  -2.7753  1.9949999999999997  -3.3484000000000016 
C  0.014899999999999913  -2.0222  -3.8628 
H  0.9085999999999999  -2.0749  -3.4898000000000007 
H  0.02289999999999992  -1.4425  -4.640900000000001 
H  -0.2804000000000002  -2.9090000000000003  -4.123200000000001 
C  -2.8165000000000004  -1.2543  -3.3516000000000012 
H  -3.4415000000000004  -0.8929  -2.7021000000000015 
H  -3.0998  -2.1441  -3.612 
H  -2.7925000000000004  -0.6806000000000001  -4.132900000000001 
C  -1.2698  -2.5913  -1.2681000000000004 
H  -1.8776000000000002  -2.2706  -0.5833000000000013 
H  -0.3947000000000003  -2.7419000000000002  -0.8759000000000015 
H  -1.6076000000000001  -3.4225000000000003  -1.6347000000000005 
