34
unq_CSD-UMULAP-02-a
N  1.757299999999999  -0.5138  -0.6404999999999994 
N  -0.3706000000000014  0.20190000000000002  -1.9126999999999996 
C  0.5570999999999984  -0.08889999999999999  -4.1836 
C  0.6077999999999992  -0.1709  -2.6868 
C  1.782399999999999  -0.639  -2.0210999999999997 
C  3.0046999999999997  -1.1388  -2.445 
C  3.7653  -1.342  -1.2934999999999999 
C  2.9659999999999993  -0.9538  -0.22019999999999929 
C  -1.5104000000000006  0.8724000000000001  -2.4648999999999996 
C  -1.5150000000000006  2.2688  -2.4739999999999998 
C  -2.6412000000000004  2.9227  -2.9469 
C  -3.749200000000001  2.2376  -3.4159999999999995 
C  -3.715300000000001  0.8554999999999999  -3.3998 
C  -2.6134000000000004  0.1456  -2.9284999999999997 
C  -2.6191000000000004  -1.3589  -2.9374 
C  -0.3318000000000012  3.0439  -1.9654999999999996 
C  -4.955800000000001  2.9957  -3.9166999999999996 
H  3.2772999999999985  -1.2832999999999999  -3.4131 
H  4.658899999999999  -1.652  -1.2300999999999997 
H  3.1974  -0.9863999999999999  0.7120000000000006 
H  -2.6316000000000006  3.8423  -2.9566 
H  -4.4449000000000005  0.33190000000000003  -3.6750999999999996 
H  -5.525200000000001  2.4421  -4.476 
H  -4.708900000000001  3.8072  -4.4041999999999994 
H  -5.5413000000000014  3.2979  -3.1742999999999997 
H  -0.5305  3.94  -1.9675999999999996 
H  0.45289999999999964  2.9149  -2.5212999999999997 
H  -0.06900000000000084  2.7456  -0.9912999999999998 
H  -0.3344000000000005  0.24720000000000003  -4.4655 
H  1.2756999999999987  0.5155  -4.5077 
H  0.7001999999999988  -1.0124  -4.5606 
H  -1.7573000000000008  -1.695  -2.5635999999999997 
H  -2.734000000000001  -1.6844999999999999  -3.8737999999999997 
H  -3.379200000000001  -1.6871  -2.3733999999999997 
