72
unq_CSD-UNIMIN-02-a
N  -0.03820000000000001  -1.8288  -1.0766 
N  1.8498999999999999  -0.39070000000000005  0.6238000000000001 
C  0.9342999999999999  -2.7243000000000004  -1.0949 
C  2.1254  -2.5947000000000005  -0.26290000000000013 
H  2.6803  -3.3653000000000004  -0.23550000000000004 
C  2.5551  -1.5624  0.46330000000000027 
C  0.8118  -3.9839  -1.8957999999999995 
H  0.07579999999999998  -4.5253000000000005  -1.5419 
H  1.6476000000000002  -4.4912  -1.8373999999999997 
H  0.6301  -3.7583  -2.8317999999999994 
C  3.8812  -1.6983  1.1237000000000004 
H  3.9005  -2.5256  1.6492 
H  4.0319  -0.9320999999999999  1.7149 
H  4.5844  -1.7274999999999998  0.44140000000000024 
C  -1.0852  -2.0262000000000002  -1.9943 
C  -1.0107  -1.5283999999999998  -3.3663999999999996 
C  -2.1349  -1.6102  -4.123499999999999 
H  -2.0906  -1.3063999999999998  -5.023000000000001 
C  -3.3436  -2.1113  -3.6638 
C  -3.4123  -2.5808  -2.4029999999999996 
H  -4.2454  -2.9054  -2.0819 
C  -2.3329999999999997  -2.6073000000000004  -1.5710999999999995 
C  0.29639999999999994  -0.9637999999999998  -3.8754 
H  0.6527999999999999  -0.32400000000000007  -3.2222 
H  0.14489999999999997  -0.5081  -4.729299999999999 
H  0.9407  -1.6916  -4.0031 
C  -2.3496  -3.2024  -0.19169999999999998 
H  -1.6353  -2.8003  0.3447 
H  -2.2087  -4.17  -0.2519 
H  -3.2157  -3.0238000000000005  0.22970000000000024 
C  -4.6354999999999995  -1.9892999999999998  -4.5505 
C  -5.5076  -0.9694  -4.0049 
H  -6.2813  -0.8505  -4.5943 
H  -5.0171  -0.12309999999999999  -3.9356 
H  -5.8132  -1.2432999999999998  -3.1145999999999994 
C  -4.3118  -1.6481999999999999  -6.041099999999999 
H  -5.1421  -1.6361999999999999  -6.561100000000001 
H  -3.7062  -2.3266999999999998  -6.406 
H  -3.8831999999999995  -0.7676999999999998  -6.088499999999999 
C  -5.3373  -3.4080000000000004  -4.5996999999999995 
H  -5.7878  -3.5777  -3.7459 
H  -4.6605  -4.1006  -4.7548 
H  -5.9927  -3.4226  -5.3259 
C  2.5284  0.6993000000000001  1.3719000000000001 
C  3.2963  1.5734000000000001  0.5563000000000002 
C  3.8088  2.7226  1.2259000000000002 
H  4.2707  3.3756000000000004  0.7132000000000001 
C  3.6703  2.9339000000000004  2.5797 
C  2.983  1.9818000000000002  3.3186 
H  2.9155  2.081  4.2601 
C  2.3863  0.8727000000000001  2.6965000000000003 
C  3.4427  1.3675000000000002  -0.9451999999999998 
H  3.7205  2.2088  -1.3648999999999996 
H  2.5837  1.0831  -1.3210999999999995 
H  4.1185  0.6788000000000001  -1.1148999999999996 
C  1.567  -0.1008  3.5011 
H  0.6755  -0.18619999999999992  3.1015 
H  1.4824  0.22510000000000008  4.4224000000000006 
H  2.0089  -0.9751000000000001  3.5047 
C  4.2275  4.2348  3.1635 
C  3.5133  5.4038  2.6198 
H  2.5712  5.3656  2.888 
H  3.5757  5.3994  1.6419000000000001 
H  3.9184  6.2253  2.9683 
C  4.0905  4.2215  4.7253 
H  4.3466  5.0954  5.0829 
H  4.6797  3.5308  5.0975 
H  3.1621  4.0245  4.9698 
C  5.737  4.3575  2.9063 
H  5.9217  4.1948  1.9575000000000002 
H  6.2158  3.6978  3.45 
H  6.0369  5.2592  3.1489000000000003 
