36
unq_CSD-VIPBUS-02-a
N  -1.5288999999999984  -1.2334999999999994  1.177900000000001 
N  -2.1610999999999994  0.10260000000000069  -0.49129999999999896 
Si  -3.0325999999999986  1.3137000000000008  -1.3806999999999992 
N  -3.8409999999999993  -1.2608999999999995  0.5099 
C  -1.4977999999999998  -2.4343999999999983  1.9223000000000017 
C  -0.6460999999999988  -2.5146999999999995  3.0113000000000003 
H  -0.1556999999999995  -1.7652999999999999  3.2567000000000004 
C  -0.5064999999999991  -3.6762999999999995  3.7378 
H  0.08840000000000003  -3.7096999999999998  4.453000000000001 
C  -1.2491999999999983  -4.7875  3.4062 
H  -1.1649999999999991  -5.570399999999999  3.9003000000000014 
C  -2.1067  -4.7292  2.3530000000000015 
H  -2.6149999999999984  -5.479099999999999  2.1385000000000005 
C  -2.2418999999999993  -3.572899999999999  1.5859000000000005 
H  -2.820499999999999  -3.5576999999999988  0.8577000000000012 
C  -2.542299999999999  -0.8119999999999994  0.4010000000000016 
C  -4.464799999999999  -1.5633999999999997  1.7777000000000012 
H  -3.870899999999999  -1.3229999999999986  2.492800000000001 
H  -4.657399999999999  -2.502699999999999  1.8248000000000015 
H  -5.281299999999999  -1.0642999999999994  1.8589000000000002 
C  -4.622099999999999  -1.5649999999999995  -0.6716999999999995 
H  -4.125299999999999  -1.3204999999999991  -1.4550999999999998 
H  -5.444399999999999  -1.069799999999999  -0.6473999999999993 
H  -4.815299999999999  -2.5046  -0.6944999999999997 
C  -1.942499999999999  2.838800000000001  -1.4989999999999988 
H  -1.1218999999999983  2.6107000000000014  -1.9410999999999987 
H  -1.7527999999999988  3.1655000000000015  -0.6180999999999983 
H  -2.398199999999999  3.5188000000000006  -2.0012999999999987 
C  -3.374599999999999  0.7481000000000009  -3.117899999999999 
H  -2.5500999999999987  0.4953000000000003  -3.540499999999999 
H  -3.7817999999999996  1.4628000000000014  -3.611999999999999 
H  -3.969099999999999  -0.006999999999999673  -3.0984 
C  -4.600099999999999  1.8261000000000003  -0.5189999999999984 
H  -4.396599999999999  2.104700000000001  0.3766000000000016 
H  -5.208099999999999  1.0826000000000011  -0.49129999999999896 
H  -5.0055  2.5542000000000016  -0.9951999999999988 
