50
unq_CSD-PITHAC-02-a
N  -1.7073999999999998  1.6593999999999998  0.4658 
N  -0.34919999999999995  2.0153  -1.2636 
Si  -1.9991999999999999  5.0842  -0.4441 
Si  -3.6553  3.0243  -2.0902 
N  -2.317  3.4657999999999998  -1.0369 
C  -1.4299  2.3785  -0.5797 
C  -2.8244  1.9617000000000004  1.387 
H  -3.3507  2.7222  1.008 
C  -2.3346999999999998  2.3468  2.7198 
H  -1.7585  3.1353  2.6416 
H  -1.8253  1.6059  3.1067 
H  -3.0974  2.5564  3.299 
C  -3.7334  0.7796000000000003  1.5363 
H  -4.087400000000001  0.5273000000000003  0.6574 
H  -4.475  1.0112000000000005  2.1328 
H  -3.2310999999999996  0.026499999999999968  1.9137 
C  0.03080000000000016  2.6468  -2.4885 
H  -0.5074999999999998  3.4814  -2.6076 
C  -0.18069999999999986  1.7382  -3.7012 
H  -1.1189  1.4596  -3.7421 
H  0.39170000000000016  0.9466000000000001  -3.6204 
H  0.049799999999999844  2.2262000000000004  -4.5188 
C  1.5102000000000002  3.0168  -2.3699 
H  1.6413000000000002  3.5911  -1.5874 
H  1.7933  3.4960000000000004  -3.1773 
H  2.0445  2.2006000000000006  -2.2716 
C  -3.3767  5.5726  0.7126 
H  -3.6286  4.8024  1.2636 
H  -4.1521  5.867500000000001  0.1899 
H  -3.0742000000000003  6.3038  1.2904 
C  -2.1193999999999997  6.171  -1.9458 
H  -1.4003  5.9418999999999995  -2.5735 
H  -2.0322  7.1093  -1.6775 
H  -2.9869  6.0333  -2.3787 
C  -0.6454  5.1339  0.8356 
H  0.21300000000000008  4.9243  0.4115 
H  -0.8331999999999999  4.4746  1.5363 
H  -0.6032  6.0284  1.232 
C  -3.5442  3.6837  -3.8208 
H  -3.4886  4.662300000000001  -3.7957 
H  -4.3399  3.4144000000000005  -4.324 
H  -2.7435  3.3230000000000004  -4.2559 
C  -3.7668999999999997  1.1740000000000004  -2.3008 
H  -3.8228  0.7466999999999997  -1.4219 
H  -2.9707  0.8502999999999998  -2.7707 
H  -4.5665  0.9527000000000001  -2.8243 
C  -5.2604  3.6130000000000004  -1.3598 
H  -5.2286  4.585500000000001  -1.2441 
H  -5.3995999999999995  3.1828000000000003  -0.4894 
H  -5.9983  3.3790000000000004  -1.9624 
