48
unq_CSD-VOHYEY-02-a
N  -1.6769999999999996  -1.0937000000000001  -0.27769999999999984 
N  0.21509999999999962  -1.9485999999999999  0.38560000000000016 
N  -1.4945000000000004  -3.5212999999999997  -0.17600000000000016 
C  -1.0501000000000005  -2.2577999999999996  -0.031200000000000117 
C  -1.0218000000000007  -4.5908999999999995  0.7197 
H  -0.42769999999999975  -4.2029  1.4102000000000001 
H  -0.49629999999999974  -5.2477  0.1979000000000002 
C  -2.1851000000000003  -5.2993999999999994  1.3962999999999997 
H  -2.7188999999999997  -4.6471  1.8956000000000004 
H  -1.8398000000000003  -5.979699999999999  2.0119000000000002 
H  -2.7453000000000003  -5.729  0.7170999999999998 
C  -2.3944  -3.9062  -1.2741 
H  -2.5076  -3.1357  -1.8851 
H  -3.2840999999999996  -4.127599999999999  -0.8992999999999998 
C  -1.8816999999999995  -5.0916999999999994  -2.0641 
H  -0.9619  -4.9189  -2.3529999999999998 
H  -2.4497  -5.2302  -2.8509 
H  -1.9028  -5.8934999999999995  -1.501 
C  1.3276000000000003  -2.8453999999999997  0.29910000000000014 
C  1.9625000000000004  -3.2110999999999996  1.4975999999999998 
C  3.0112000000000005  -4.1165  1.4269000000000003 
H  3.4444  -4.3919999999999995  2.2258 
C  3.4365000000000006  -4.6241  0.21620000000000017 
H  4.1373  -5.2654  0.1903999999999999 
C  2.8454999999999995  -4.2019  -0.9592 
H  3.1662999999999997  -4.5339  -1.79 
C  1.7870000000000008  -3.2975999999999996  -0.9447999999999999 
C  1.2067999999999994  -2.7868  -2.233 
H  1.6481999999999992  -3.2298999999999998  -2.9885 
H  1.3483999999999998  -1.8188999999999997  -2.2942 
H  0.24649999999999928  -2.9789999999999996  -2.2579000000000002 
C  1.4815000000000005  -2.6651  2.8126 
H  0.6225000000000005  -3.0763999999999996  3.0428 
H  1.3704  -1.6938  2.7425 
H  2.138  -2.8695999999999997  3.5107000000000004 
C  -3.1535  -0.7637  -0.2185999999999999 
C  -3.7828  -0.8179999999999996  -1.6046 
H  -3.2592999999999996  -0.2644000000000002  -2.2216 
H  -4.7005  -0.4786999999999999  -1.5598 
H  -3.7909999999999995  -1.7443999999999997  -1.9239 
C  -3.2779999999999996  0.6683000000000003  0.2934000000000001 
H  -2.8941999999999997  0.7279  1.1925000000000003 
H  -4.2236  0.9230999999999998  0.32430000000000003 
H  -2.7970999999999995  1.2739000000000003  -0.3088000000000002 
C  -3.8663  -1.6720999999999995  0.7709999999999999 
H  -3.8225999999999996  -2.5989  0.45440000000000014 
H  -4.8041  -1.3976999999999995  0.8496999999999999 
H  -3.4321  -1.6055000000000001  1.6465999999999998 
