41
unq_CSD-VOWZUF-02-c
N  1.2446999999999981  1.414699999999999  1.0162000000000013 
N  -1.3979  1.3281999999999998  0.9732000000000003 
N  0.6377999999999986  2.4196  1.5805000000000007 
N  -2.643600000000003  1.381899999999999  1.2713 
N  -1.9134000000000029  4.222599999999999  2.9086000000000016 
C  -0.6905000000000001  2.3663999999999996  1.5902000000000012 
C  -1.3803000000000019  3.3930999999999996  2.3180000000000014 
C  2.6718999999999973  1.6549000000000005  0.9316000000000013 
C  3.554599999999997  0.8077999999999994  1.6193000000000008 
C  4.926199999999998  1.1001000000000003  1.5652000000000008 
H  5.5417999999999985  0.531299999999999  2.0130000000000017 
C  5.3958999999999975  2.1885000000000003  0.8817000000000004 
H  6.3248999999999995  2.385699999999999  0.8831000000000007 
C  4.526  2.9986000000000006  0.19130000000000003 
H  4.8659  3.7471000000000005  -0.28419999999999845 
C  3.1503999999999976  2.7414999999999994  0.17600000000000016 
C  3.0847999999999978  -0.3440000000000003  2.4497 
H  2.7124999999999986  -0.007600000000000051  3.2913000000000014 
H  3.8394999999999975  -0.9392000000000005  2.641 
H  2.3933999999999997  -0.8388  1.9617000000000004 
C  2.2669999999999995  3.599099999999999  -0.7014999999999993 
H  2.7013  4.4621  -0.8581999999999983 
H  1.4050999999999974  3.7436  -0.25649999999999906 
H  2.120799999999999  3.1465000000000005  -1.5582999999999991 
C  -3.484600000000002  0.3304999999999998  0.7874000000000017 
C  -3.9868000000000023  0.321699999999999  -0.5073999999999987 
C  -4.928100000000002  -0.6627000000000001  -0.8415999999999997 
H  -5.264000000000001  -0.7031999999999998  -1.7302 
C  -5.373100000000001  -1.5678999999999998  0.0818000000000012 
H  -6.005200000000002  -2.2248  -0.18439999999999834 
C  -4.935100000000002  -1.5521000000000003  1.3878000000000004 
H  -5.249500000000001  -2.1931000000000003  2.0144 
C  -3.9830000000000023  -0.5377000000000001  1.780100000000001 
C  -3.6297000000000015  1.4030999999999993  -1.5055999999999994 
H  -3.319000000000001  2.2008  -1.0272999999999985 
H  -4.420400000000001  1.6284999999999998  -2.0393999999999988 
H  -2.9182000000000023  1.0789999999999997  -2.0961999999999987 
C  -3.5527000000000015  -0.35800000000000054  3.220600000000001 
H  -2.574200000000001  -0.3440000000000003  3.2705 
H  -3.898600000000002  -1.1012000000000004  3.7599 
H  -3.9094000000000015  0.4873000000000003  3.564400000000001 
