54
unq_CSD-PITHUY-02-a
N  -1.2695000000000003  -0.09560000000000013  1.6747 
N  0.7965999999999998  -1.8145999999999995  0.7263999999999999 
C  1.9445999999999994  -3.0652999999999997  2.5096 
H  1.5135999999999994  -3.9402999999999997  2.4171 
H  2.1715  -2.9108  3.4508 
H  2.7634999999999996  -3.0476  1.9693999999999998 
C  1.0057999999999998  -1.9875999999999996  2.0345999999999997 
C  0.35659999999999936  -1.2245999999999997  3.0161 
H  0.7440999999999995  -1.2401999999999997  3.883 
C  -0.7949000000000002  -0.4436  2.8709 
C  -1.5269000000000004  -0.03219999999999956  4.1218 
H  -1.6748000000000003  0.9367000000000001  4.1110999999999995 
H  -0.9943000000000004  -0.2724000000000002  4.9079999999999995 
H  -2.3895000000000004  -0.49270000000000014  4.1613 
C  -2.5758  0.476  1.5402 
C  -2.7735000000000003  1.8397999999999994  1.6223 
H  -2.0481000000000003  2.413100000000001  1.8449999999999998 
C  -4.0347  2.3702999999999994  1.3790999999999998 
H  -4.1729  3.307900000000001  1.4386999999999999 
C  -5.0818  1.5423  1.0533000000000001 
H  -5.9396  1.9088000000000003  0.8820999999999999 
C  -4.888800000000001  0.19430000000000014  0.9748000000000001 
H  -5.615  -0.37570000000000014  0.7525 
C  -3.6384000000000003  -0.3454999999999995  1.2189 
H  -3.5103000000000004  -1.2851  1.1656 
C  1.1578999999999997  -2.859  -0.2017 
C  2.3389999999999995  -2.7604999999999995  -0.9548000000000001 
C  2.6075  -3.7826  -1.8767 
H  3.4005  -3.7398  -2.3987 
C  1.7489999999999997  -4.8466  -2.0405 
H  1.9619  -5.5357  -2.6580000000000004 
C  0.5908999999999995  -4.910299999999999  -1.3144 
H  0.0009999999999994458  -5.6453  -1.4428 
C  0.2542  -3.9217  -0.3894000000000002 
C  3.2995  -1.6045999999999996  -0.7956000000000001 
H  2.9461999999999993  -1.0179  -0.0686 
C  3.3804  -0.7619999999999996  -2.0682 
H  3.7521999999999993  -1.3038999999999996  -2.7963 
H  3.9570999999999996  0.013700000000000045  -1.9095 
H  2.4819999999999993  -0.45509999999999984  -2.314 
C  4.697299999999999  -2.0682  -0.37260000000000004 
H  4.633499999999999  -2.5870999999999995  0.4551999999999998 
H  5.270499999999999  -1.2862  -0.22420000000000018 
H  5.083899999999999  -2.6268000000000002  -1.0781 
C  -1.0542000000000002  -4.0165  0.3689 
H  -1.0875000000000004  -3.2554  1.017 
C  -1.1535000000000002  -5.307  1.1612999999999998 
H  -1.1534000000000004  -6.0692  0.5450999999999999 
H  -1.9826000000000001  -5.307  1.6825 
H  -0.3850000000000007  -5.377  1.7671999999999999 
C  -2.2442  -3.8808  -0.5702 
H  -2.1562  -3.057  -1.0936000000000001 
H  -3.0719000000000003  -3.8484  -0.04610000000000003 
H  -2.2707  -4.6513  -1.1749 
