32
unq_CSD-VURXEL-02-a
N  0.2695  0.1497  2.0234 
N  -0.7796  -1.4812  1.1618 
C  -0.4069  -0.9737  2.3289 
C  -0.7718  -1.4883  3.6728 
C  0.1666  -2.5514  4.2311 
C  0.7844  1.1305  2.8842 
C  1.4455  0.8471  4.0633 
C  1.9514  1.8721  4.8218 
C  1.8234  3.1735  4.4366 
C  1.2004  3.4639  3.2597 
C  0.674  2.4479  2.4862 
H  -0.8218  -0.7497  4.2823 
H  -1.6503  -1.8721  3.6036 
H  -0.1437  -2.8439  5.092 
H  1.041  -2.1676  4.3199 
H  0.2051  -3.3021  3.6337 
H  1.5637  -0.0613  4.3515 
H  2.3933  1.6541  5.6458 
H  2.1843  3.8719  4.9874 
H  1.1104  4.3683  2.9519 
H  0.215  2.6489  1.6667 
C  -1.5796  -2.6348  0.9526 
C  -1.1257  -3.8769  1.2024 
C  -2.816  -2.4922  0.3905 
C  -1.9309  -4.9652  0.9398 
H  -0.2578  -3.9874  1.5982 
C  -3.5989  -3.5985  0.1317 
H  -3.1466  -1.6279  0.1324 
C  -3.1543  -4.8366  0.4229 
H  -1.6242  -5.8395  1.1897 
H  -4.495  -3.4719  -0.1881 
H  -3.6793  -5.5973  0.1625 
