31
unq_CSD-VUYDAW-02-a
N  1.2173000000000003  0.6924999999999999  -1.2781999999999991 
N  -0.5611999999999999  1.7241  0.49730000000000096 
C  1.9055000000000002  -0.06579999999999986  -2.1498999999999997 
C  2.3851  0.69  -3.226399999999999 
C  1.9556000000000002  1.9756  -3.0263999999999998 
C  1.2316000000000003  1.9949999999999999  -1.805699999999999 
C  0.6302000000000001  3.0842  -1.1666999999999996 
C  -0.1412  2.953  -0.012900000000000134 
C  -0.5444  3.9703  0.8901000000000003 
C  -1.1892999999999998  3.3655  1.9301000000000013 
C  -1.1769999999999996  1.9837  1.6607000000000003 
C  0.8177000000000001  4.4597999999999995  -1.7073999999999998 
C  2.0782000000000003  4.96  -2.0371999999999995 
C  2.2096  6.2468  -2.5355999999999996 
C  1.1035000000000001  7.0695  -2.724899999999999 
C  -0.14169999999999972  6.5737000000000005  -2.3854999999999995 
C  -0.2876999999999996  5.2905999999999995  -1.8744999999999994 
C  1.2614  8.468  -3.267199999999999 
H  2.1888  8.6384  -3.4460999999999995 
H  0.9384000000000001  9.1002  -2.6209 
H  0.7572000000000001  8.5543  -4.079299999999999 
H  -1.537  1.2662  2.209200000000001 
H  2.8415  4.4418  -1.8527999999999993 
H  1.9975  -1.0156  -2.013399999999999 
H  -1.1279  4.972799999999999  -1.6513999999999998 
H  2.0832  2.748  -3.6159999999999997 
H  -1.5324999999999998  3.7687  2.6735000000000007 
H  2.8593  0.3932  -3.9558999999999997 
H  3.0269000000000004  6.534000000000001  -2.7407999999999992 
H  -0.34529999999999994  4.8645  0.7834000000000003 
H  -0.8868999999999998  7.127000000000001  -2.5103999999999997 
