44
unq_CSD-VUZFON-02-a
N  1.1639  -0.13670000000000115  -1.7036999999999978 
N  -1.7077  -0.023600000000000065  -0.9971999999999994 
C  2.4976000000000003  -0.1598000000000006  -1.5024999999999977 
H  2.8125  -0.10640000000000072  -0.6074999999999982 
C  3.4204  -0.2381000000000011  -2.502699999999999 
H  4.3147  -0.2455000000000016  -2.290399999999998 
C  2.9494  -0.2944000000000013  -3.805999999999999 
H  3.5695999999999994  -0.3652000000000015  -4.500399999999999 
C  1.6193  -0.2657000000000007  -4.0405 
H  1.2374999999999998  -0.3293000000000017  -4.926499999999999 
C  0.6887999999999996  -0.1734000000000009  -2.9757999999999996 
C  -0.7001  -0.11930000000000085  -3.2319999999999993 
H  -0.9591000000000003  -0.12890000000000157  -4.108799999999999 
C  -1.7413000000000003  -0.061100000000001486  -2.3442000000000007 
H  -2.6127000000000002  -0.06460000000000043  -2.722899999999999 
C  -2.9803  -0.12480000000000047  -0.3443000000000005 
C  -3.7211  -1.3173000000000012  -0.4258999999999986 
C  -4.9573  -1.3748000000000005  0.2198999999999991 
H  -5.4606  -2.2079000000000004  0.14780000000000015 
C  -5.4345  -0.29940000000000033  0.9296000000000006 
H  -6.3091  -0.3996000000000013  1.3551000000000002 
C  -4.7054  0.8507999999999996  1.012900000000002 
H  -4.9939  1.629999999999999  1.441200000000002 
C  -3.4622  0.9786999999999999  0.37959999999999994 
C  -3.2427  -2.543800000000001  -1.182299999999998 
H  -2.3383000000000003  -2.3709000000000007  -1.5306999999999995 
C  -3.1696  -3.785300000000001  -0.29850000000000065 
H  -4.071  -4.028100000000001  -0.0006999999999983686 
H  -2.6079  -3.5973000000000006  0.4814000000000007 
H  -2.7832  -4.5276000000000005  -0.8076000000000008 
C  -4.1245  -2.8348000000000013  -2.3968999999999987 
H  -5.0512  -2.9632000000000005  -2.1052999999999997 
H  -3.8066  -3.646700000000001  -2.843399999999999 
H  -4.0802000000000005  -2.0807  -3.0199 
C  -2.7056000000000004  2.2802999999999987  0.4639000000000024 
H  -1.9652000000000003  2.2177999999999987  -0.09539999999999793 
C  -3.508  3.454699999999999  -0.07169999999999987 
H  -3.7971000000000004  3.263299999999999  -0.9883999999999986 
H  -2.9511000000000003  4.2608999999999995  -0.06739999999999924 
H  -4.295  3.5982999999999983  0.4964000000000013 
C  -2.193  2.5572999999999997  1.874600000000001 
H  -2.9481  2.5737999999999985  2.4999000000000002 
H  -1.7357  3.4247999999999994  1.890900000000002 
H  -1.5653000000000001  1.8529  2.1384000000000007 
