22
unq_CSD-GORJAY-02-a
N  -0.6621999999999986  -1.5701  1.7814999999999999 
N  -1.8019999999999996  -0.9181999999999988  1.3651 
C  -2.8621999999999996  -1.5884  1.8649 
C  -2.4506999999999994  -2.6784999999999997  2.5924 
C  -3.1533999999999995  -3.7604999999999986  3.3481 
C  -2.279299999999999  -5.0123  3.3946 
C  -0.8087999999999997  -4.7566999999999995  3.6729999999999996 
C  -0.037499999999999645  -5.693099999999999  4.3444 
C  1.3196000000000012  -5.518299999999999  4.494400000000001 
C  1.9276  -4.395499999999999  3.9681 
C  1.1783000000000001  -3.4452999999999996  3.3112 
C  -0.20500000000000007  -3.6119000000000003  3.158 
C  -1.0672999999999995  -2.6296  2.5113999999999996 
H  -3.802199999999999  -1.3186999999999998  1.7433999999999998 
H  -3.331999999999999  -3.471499999999999  4.243399999999999 
H  -3.998199999999999  -3.9589999999999996  2.9297999999999997 
H  -2.6381999999999994  -5.6167  4.052099999999999 
H  -2.3584999999999994  -5.457999999999999  2.5344 
H  -0.48019999999999996  -6.491499999999999  4.6745 
H  1.8431000000000015  -6.1781999999999995  4.9694 
H  2.892900000000001  -4.284199999999999  4.059799999999999 
H  1.610100000000001  -2.655999999999999  2.9769 
