39
unq_CSD-GOYNIT-02-a
N  1.4349000000000007  -1.2826000000000004  0.04870000000000019 
N  -1.008799999999999  -1.4256000000000002  1.3003 
N  3.3225  0.02880000000000038  -2.1259999999999994 
C  1.0897000000000006  -2.4720000000000004  0.6513000000000009 
C  2.2083999999999993  -3.2256  0.8749000000000002 
H  2.245099999999999  -4.0849  1.2772000000000006 
C  3.2974000000000014  -2.4728000000000003  0.3865999999999996 
H  4.210099999999999  -2.7377000000000002  0.3932000000000002 
C  2.8009000000000004  -1.2841000000000005  -0.10299999999999976 
C  -0.3669999999999991  -2.7093  0.9133000000000013 
H  -0.8005999999999993  -3.0697  0.09950000000000081 
H  -0.4734999999999996  -3.3714000000000004  1.6410999999999998 
C  -2.4887999999999995  -1.5103999999999997  1.3102999999999998 
H  -2.796199999999999  -2.3274  1.7774 
H  -2.8534999999999986  -1.5076  0.39060000000000095 
C  -2.9008000000000003  -0.26319999999999943  2.065900000000001 
H  -3.7502999999999993  -0.4108999999999998  2.5515000000000008 
H  -3.0167  0.5000999999999998  1.4451999999999998 
C  -1.7523  0.002000000000000668  3.0450999999999997 
H  -1.4022999999999985  0.9213000000000005  2.9366000000000003 
H  -2.0546999999999986  -0.11580000000000013  3.9807000000000006 
C  -0.6925999999999988  -1.0250000000000004  2.6891 
H  0.21300000000000097  -0.6281999999999996  2.7421000000000006 
H  -0.7375999999999987  -1.8032000000000004  3.299200000000001 
C  3.5022  -0.1061999999999994  -0.6838999999999995 
H  3.167399999999999  0.7149000000000001  -0.24189999999999934 
H  4.468999999999999  -0.18050000000000033  -0.4880999999999993 
C  4.0083  -1.0  -2.9082999999999997 
H  3.5246000000000013  -1.8628999999999998  -2.856699999999999 
H  4.934099999999999  -1.1311999999999998  -2.5854999999999997 
C  3.999699999999999  -0.4574999999999996  -4.332199999999999 
H  3.254299999999999  -0.8474000000000004  -4.853599999999999 
H  4.852100000000002  -0.6623000000000001  -4.7927 
C  3.8180999999999994  1.0541  -4.1708 
H  4.547300000000002  1.5481999999999996  -4.6232999999999995 
H  2.9505  1.3483999999999998  -4.5451999999999995 
C  3.8636999999999997  1.2749000000000006  -2.6648999999999994 
H  4.792199999999999  1.4245  -2.3538999999999994 
H  3.3062000000000022  2.0490999999999993  -2.4014999999999995 
