54
unq_CSD-PIVKEM-02-a
N  1.0944000000000003  1.4128  -0.7613999999999983 
N  -0.06849999999999978  0.9338  1.7859000000000016 
C  1.9828000000000001  2.0926  -0.06199999999999939 
C  2.002  2.0927  1.3442000000000007 
H  2.7559000000000005  2.4576000000000002  1.7490000000000006 
C  1.0053999999999998  1.6011  2.2003000000000004 
C  -1.1366999999999998  0.7011999999999998  2.706100000000001 
C  -2.0014  1.7305  3.117700000000001 
C  -1.8301999999999998  3.1728999999999994  2.6632000000000016 
H  -0.9651999999999998  3.2462  2.208400000000001 
C  -1.8325999999999998  4.1617999999999995  3.8392000000000017 
H  -2.6989  4.1639  4.2536000000000005 
H  -1.6310999999999998  5.0427  3.5167 
H  -1.1702999999999997  3.8964  4.482100000000001 
C  -2.9257999999999997  3.5482999999999993  1.6611000000000011 
H  -2.8646  2.9787999999999997  0.8908000000000005 
H  -2.8137  4.4627  1.3922000000000008 
H  -3.7857999999999996  3.4391999999999996  2.0732000000000017 
C  -3.0831999999999997  1.3804999999999998  3.9418000000000006 
H  -3.6683  2.0454  4.2232 
C  -3.3047  0.07590000000000008  4.346400000000001 
H  -4.036099999999999  -0.12860000000000005  4.8832 
C  -2.4345  -0.9228000000000001  3.9499000000000013 
H  -2.5721  -1.8002  4.2256 
C  -1.3541999999999998  -0.6056  3.1361000000000008 
H  -0.7670999999999997  -1.2769  2.873000000000001 
C  1.2127  1.848  3.679400000000001 
H  0.5684  2.489  3.99 
H  2.0992000000000006  2.1881000000000004  3.8268000000000004 
H  1.1016000000000004  1.0239999999999998  4.160300000000001 
C  3.0463000000000005  2.9208  -0.7540999999999993 
H  3.7035  2.338  -1.1425999999999998 
H  3.468  3.4989999999999997  -0.11419999999999852 
H  2.6400000000000006  3.4506999999999994  -1.4434999999999985 
C  1.0202999999999998  1.5887  -2.182499999999999 
C  1.9798999999999998  1.0058  -3.0063999999999993 
H  2.6763000000000003  0.5175000000000001  -2.630399999999999 
C  1.9043  1.1496000000000002  -4.389499999999999 
H  2.542  0.7512999999999999  -4.936799999999999 
C  0.8729000000000005  1.8893000000000002  -4.943299999999999 
H  0.8167  1.9941000000000002  -5.8649 
C  -0.07569999999999988  2.4729  -4.1209999999999996 
H  -0.7595999999999998  2.9715  -4.507699999999999 
C  -0.03919999999999968  2.3373  -2.7292999999999994 
C  -1.0680999999999998  3.005  -1.8335999999999988 
H  -1.2887999999999997  2.3726000000000003  -1.116999999999999 
C  -0.4939  4.2608  -1.1753 
H  0.2714000000000003  4.0233  -0.6458999999999993 
H  -1.1604999999999999  4.6598999999999995  -0.6108999999999991 
H  -0.2326999999999999  4.8864  -1.8538999999999994 
C  -2.3733  3.365  -2.5471999999999992 
H  -2.2096  4.0705  -3.176099999999999 
H  -3.0206  3.6563  -1.9004999999999992 
H  -2.7074  2.5938999999999997  -3.0105999999999993 
