11
unq_CSD-GUQDUS-02-a
N  1.9539  0.7532000000000001  0.3415999999999997 
N  0.3351000000000006  1.1797  1.736699999999999 
C  1.6030000000000006  1.3841999999999999  1.5304000000000002 
C  3.7410000000000005  2.0772  1.8955000000000002 
H  4.3843000000000005  2.541  2.4192 
C  4.172  1.4562  0.7241 
H  5.084700000000001  1.4781999999999997  0.4590999999999994 
C  3.2144000000000004  0.8056000000000001  -0.0409000000000006 
H  3.4715999999999996  0.3900999999999999  -0.8551000000000002 
N  2.473300000000001  2.0582999999999996  2.324 
H  -0.20420000000000016  1.4425  2.3795 
