33
unq_CSD-HAMBON-02-a
N  1.2719999999999985  -1.6114999999999995  -0.4644999999999999 
N  -0.17070000000000007  -1.0473999999999997  -1.7774999999999999 
N  0.8376999999999999  -1.8956999999999997  -1.6501 
N  -0.9274000000000004  -1.2396000000000003  -2.8743999999999996 
N  -1.8943000000000003  -0.41659999999999986  -2.8931 
C  -2.7715000000000005  -0.5866999999999996  -3.9887 
C  -2.536100000000001  -1.3389999999999995  -5.1256 
H  -1.7243000000000004  -1.7805999999999997  -5.2293 
C  -3.501900000000001  -1.4371999999999998  -6.106299999999999 
H  -3.326900000000001  -1.9348  -6.870799999999999 
C  -4.736800000000001  -0.8064999999999998  -5.9726 
C  -4.946300000000001  -0.06269999999999953  -4.8445 
H  -5.764200000000001  0.3673000000000002  -4.7371 
C  -3.9913000000000007  0.07360000000000078  -3.8626 
H  -4.160200000000001  0.604000000000001  -3.118 
C  -5.831600000000001  -0.9395999999999995  -6.9945 
H  -5.529000000000001  -1.4920999999999998  -7.7178 
H  -6.064100000000001  -0.07010000000000005  -7.3306000000000004 
H  -6.603900000000001  -1.3411  -6.587199999999999 
C  2.4810999999999996  -2.1746999999999996  -0.03729999999999989 
C  3.3206999999999987  -2.9058  -0.8743 
H  3.0762  -3.0599999999999996  -1.7588 
C  4.516299999999999  -3.4013  -0.3883 
H  5.078099999999999  -3.8735  -0.9604999999999999 
C  4.8971  -3.2111  0.9283999999999999 
C  4.043199999999999  -2.4874  1.7517 
H  4.2745999999999995  -2.3499999999999996  2.6424 
C  2.8614999999999995  -1.9696999999999996  1.2770000000000001 
H  2.312199999999999  -1.4783999999999997  1.8442000000000003 
C  6.1951  -3.7646999999999995  1.4531 
H  6.286099999999999  -3.5418000000000003  2.3826 
H  6.9268  -3.3853999999999997  0.9609000000000001 
H  6.2014  -4.7187  1.3519 
