47
unq_CSD-HEHCEF-02-a
N  -1.8342  0.07230000000000025  0.41620000000000035 
N  -0.8201  -0.4163000000000001  -1.9445999999999999 
N  -0.6428  1.1757999999999997  2.6278 
C  -3.9226  0.1711999999999998  1.2517999999999998 
H  -4.6275  0.27170000000000005  1.8496000000000001 
C  -4.0203  -0.1589999999999998  -0.09309999999999974 
H  -4.8017  -0.31899999999999995  -0.5709999999999997 
C  -2.7107  -0.20509999999999984  -0.589 
C  -2.113  -0.4081999999999999  -1.8721999999999999 
H  -2.6359000000000004  -0.5308999999999999  -2.6313 
C  -0.1864  -0.47040000000000015  -3.2115 
C  -0.6105  0.3202999999999996  -4.2532 
H  -1.3315000000000001  0.8941999999999997  -4.1293 
C  0.02950000000000008  0.2748999999999997  -5.5019 
H  -0.2856000000000001  0.7994000000000003  -6.2014 
C  1.1108999999999998  -0.5354999999999999  -5.6941 
H  1.5237999999999998  -0.5615999999999999  -6.5261 
C  1.6087999999999998  -1.3357999999999999  -4.6411 
C  2.7663  -2.1421  -4.8002 
H  3.2009999999999996  -2.1622  -5.622 
C  3.2516999999999996  -2.8881  -3.7674 
H  4.0249999999999995  -3.3915  -3.8825 
C  2.5854999999999997  -2.899  -2.5263 
H  2.9155999999999995  -3.4163  -1.8275 
C  1.4504  -2.1479  -2.3461 
H  1.0035999999999998  -2.1832000000000003  -1.5304999999999997 
C  0.9501999999999999  -1.3239  -3.3768 
C  -2.5541  0.3252999999999995  1.5386000000000002 
C  -1.895  0.8868999999999998  2.6868000000000003 
H  -2.3725  1.0400999999999998  3.4703000000000004 
C  -0.024399999999999977  1.8327999999999998  3.7116000000000002 
C  -0.37670000000000003  1.6501000000000001  5.0328 
H  -1.0391  1.0350000000000001  5.2508 
C  0.25340000000000007  2.3825000000000003  6.0539000000000005 
H  -0.001100000000000101  2.2474  6.9389 
C  1.2331999999999999  3.2874  5.7651 
H  1.636  3.7674000000000003  6.4519 
C  1.639  3.4986999999999995  4.4285 
C  2.6254  4.4627  4.0928 
H  3.0416999999999996  4.9468  4.7691 
C  2.9695  4.6883  2.7959 
H  3.6051  5.3353  2.5913 
C  2.3665000000000003  3.946300000000001  1.7626000000000004 
H  2.612  4.1013  0.8795000000000006 
C  1.4238000000000002  2.9993  2.0480000000000005 
H  1.0408000000000002  2.5084  1.3573 
C  1.0244000000000002  2.7583  3.3843 
