23
unq_CSD-HEJXOM-02-b
N  0.7677000000000005  -0.7657000000000003  1.8344000000000005 
N  -0.6097999999999999  0.8588999999999998  1.8454999999999995 
C  1.8697  -1.2930000000000001  2.6837999999999997 
C  2.729700000000001  -2.5065  2.5853 
N  0.1955  0.14040000000000008  2.5869 
C  -1.4116  1.8847999999999998  2.5472 
C  -1.9201999999999995  2.8794  1.5724999999999998 
C  -2.6037  1.1733999999999996  3.2250999999999994 
C  -0.5356999999999994  2.5684  3.6092999999999993 
H  3.247200000000001  -2.5789  3.3949999999999996 
H  3.314300000000001  -2.3608000000000002  1.8328000000000007 
H  2.1945999999999994  -3.3027  2.463099999999999 
H  -2.8792  1.6577999999999995  4.003 
H  -2.3369999999999997  0.28790000000000004  3.477499999999999 
H  -3.3400999999999996  1.1153999999999997  2.6138999999999992 
H  -1.0760999999999994  3.2243  4.071299999999999 
H  -0.2300999999999993  1.8964000000000003  4.2316 
H  0.2290000000000001  2.9991  3.1869999999999994 
H  2.473600000000001  -0.5307  2.7424999999999997 
H  1.4617000000000004  -1.452  3.5505999999999993 
H  -2.4323999999999995  3.5424  2.021699999999999 
H  -1.1856  3.2895  1.1342999999999996 
H  -2.4658999999999995  2.4378999999999995  0.9327000000000005 
