29
unq_CSD-HEJYAZ-02-b
N  1.5769000000000002  -0.25459999999999994  1.4780999999999995 
N  0.26449999999999996  1.4745999999999997  1.5455999999999994 
N  1.2154000000000007  0.7938000000000001  2.2245 
C  -0.16969999999999974  2.551  2.4178999999999995 
C  0.33720000000000017  3.8763000000000005  1.8800999999999997 
C  -0.1205999999999996  5.045  2.7802999999999995 
C  0.5651000000000002  5.130800000000001  4.146199999999999 
H  0.4451999999999998  6.0242  4.4853 
H  1.4944000000000006  4.9346  4.0455 
H  0.15640000000000054  4.4945  4.7389 
H  0.034600000000000186  5.8857  2.3118 
H  -1.0735000000000001  4.933  2.9501999999999997 
H  1.3057999999999996  3.8400999999999996  1.8468 
H  -0.02629999999999999  3.9967000000000006  0.9799999999999995 
H  0.19370000000000065  2.4290000000000003  3.3053999999999997 
H  -1.1402999999999999  2.5774  2.4537999999999993 
C  2.4885  -1.1233  2.1381999999999994 
C  1.8302999999999994  -1.9096000000000002  3.2757999999999994 
H  1.9364000000000008  -2.8541  3.1156999999999995 
H  2.2606  -1.6770999999999998  4.1031 
H  0.8932000000000002  -1.6886999999999999  3.3342 
C  3.2096  -2.0414  1.1480999999999995 
H  3.565200000000001  -2.8178  1.6372999999999998 
H  3.9404000000000003  -1.5337  0.7245999999999997 
H  2.5375999999999994  -2.3184  0.4745999999999997 
C  3.6830999999999996  -0.3616999999999999  2.6993 
H  4.3019  -0.9830999999999999  3.1003999999999996 
H  4.1173  0.11470000000000002  1.9807999999999995 
H  3.3648000000000007  0.2564000000000002  3.3693 
