38
unq_CSD-HIVZAQ-02-a
N  -0.3904000000000001  0.6939000000000002  -1.8702000000000005 
N  0.9738  -1.3453  -1.0995000000000008 
N  1.7616  -2.4181  -0.8497000000000003 
N  1.7093  -2.0302999999999995  -3.0898000000000003 
C  -1.1328  1.7621000000000002  -2.1618000000000013 
H  -1.5345999999999997  2.2516  -1.4533000000000005 
C  -1.3323999999999998  2.1761  -3.4605000000000006 
H  -1.8607999999999998  2.9443  -3.6409000000000002 
C  -0.7553000000000001  1.4649  -4.506000000000001 
H  -0.8933999999999997  1.7320000000000002  -5.4076 
C  0.024700000000000166  0.3597999999999999  -4.209700000000001 
H  0.43910000000000005  -0.13629999999999942  -4.9053 
C  0.19140000000000001  -0.011699999999999378  -2.892100000000001 
C  0.9706000000000001  -1.1408999999999994  -2.4301000000000013 
C  2.1829  -2.8063999999999996  -2.071200000000001 
C  3.1081000000000003  -3.9114999999999998  -2.2691 
C  3.7298999999999998  -4.0975  -3.5078000000000005 
H  3.4601  -3.5767999999999995  -4.2548 
C  4.740600000000001  -5.0412  -3.6473000000000004 
H  5.1579  -5.1406  -4.4953 
C  5.1657  -5.8468  -2.5954000000000015 
C  4.463900000000001  -5.7183  -1.3889000000000014 
H  4.6748  -6.2954  -0.6633000000000013 
C  3.4618  -4.7607  -1.2279 
H  3.0143  -4.6880999999999995  -0.39280000000000115 
C  6.4015  -6.7279  -2.7285000000000004 
C  7.6381  -5.8244  -2.5782000000000007 
H  7.6389000000000005  -5.1495  -3.288800000000001 
H  8.4499  -6.3686  -2.6426 
H  7.6125  -5.3792  -1.7045000000000012 
C  6.4596  -7.3961  -4.0981000000000005 
H  5.6190999999999995  -7.871499999999999  -4.263400000000001 
H  7.2047  -8.0319  -4.119600000000001 
H  6.5908  -6.7139  -4.7894000000000005 
C  6.458  -7.8201  -1.6594000000000015 
H  6.5092  -7.4072  -0.7728000000000002 
H  7.2507  -8.3794  -1.8054000000000006 
H  5.652200000000001  -8.3749  -1.7152000000000012 
