22
unq_CSD-YUWZOF-02-a
N  -1.3245999999999998  1.0106  -1.763799999999999 
N  -2.2082  0.2479  1.0127000000000006 
C  -3.3055000000000003  -0.2506  -1.1130999999999993 
C  -2.5143  0.4053  -2.053399999999999 
C  -3.0222999999999995  0.5012  -3.398199999999999 
C  -2.3644  1.2407  -4.3416999999999994 
C  -1.1711  1.9021  -4.010599999999999 
C  -0.7073  1.7446  -2.7319999999999993 
C  -3.2990000000000004  -0.1739  0.3031000000000006 
C  -4.4885  -0.4875  1.0117000000000012 
C  -4.604  -0.3273  2.3648000000000007 
C  -3.4783999999999997  0.1493  3.062000000000001 
C  -2.352  0.4081  2.3544 
H  -3.9443  -0.8381  -1.474099999999999 
H  -3.8137999999999996  0.0493  -3.628899999999999 
H  -2.7115  1.3064  -5.2127 
H  -0.7112  2.4293  -4.638599999999999 
H  0.09650000000000003  2.176  -2.5044999999999993 
H  -5.2261  -0.8162  0.5317000000000007 
H  -5.4054  -0.53  2.8127000000000013 
H  -3.5072  0.2848  3.9909 
H  -1.6072000000000002  0.7244  2.8323 
