57
unq_CSD-PIVLUD-02-a
N  -0.9457000000000004  1.6453999999999995  0.8249 
N  -0.4864000000000015  -0.8970000000000002  1.8244000000000002 
N  -2.6114000000000006  0.27800000000000047  1.8995000000000002 
C  -2.218400000000001  1.3912000000000004  1.3313000000000001 
C  -2.2175000000000002  -1.8284000000000002  3.0444000000000004 
C  1.3444000000000003  -2.3876999999999997  2.5140000000000002 
C  -1.8299000000000003  -0.7501999999999995  2.1865 
C  -1.0961000000000007  -2.5950999999999995  3.2009999999999996 
H  -1.029300000000001  -3.3914999999999997  3.7150999999999996 
C  -3.5257000000000005  -2.0431999999999997  3.668 
C  -4.353800000000001  2.7725  1.8126000000000002 
C  -0.05900000000000105  -1.9921999999999995  2.4618 
C  1.6033999999999988  3.075500000000001  0.5343 
H  1.6513999999999989  2.2653000000000008  1.0274999999999999 
C  0.3243999999999989  4.8214999999999995  -0.497 
H  -0.5106999999999999  5.2223  -0.7089 
C  1.7012999999999998  -3.7178999999999998  2.5158 
H  1.030199999999999  -4.3857  2.4384 
C  0.3586999999999989  3.6156999999999995  0.2208000000000001 
C  -2.103200000000001  3.583800000000001  0.9460000000000002 
H  -2.2922000000000002  4.5131000000000006  0.8841000000000001 
C  -5.665500000000001  -1.2797999999999998  4.4433 
H  -6.295300000000001  -0.5747999999999998  4.5411 
C  -2.9709000000000003  2.6224999999999996  1.3568000000000002 
C  -5.272200000000001  1.7367999999999997  1.7156000000000002 
H  -5.004900000000001  0.9074  1.3393000000000002 
C  -4.4472000000000005  -1.0202999999999998  3.8452 
H  -4.24  -0.1398999999999999  3.5557999999999996 
C  1.4886999999999997  5.4243  -0.8914 
H  1.452  6.2367  -1.3825 
C  2.3461999999999996  -1.4264999999999999  2.6287 
H  2.1205  -0.5035999999999996  2.625 
C  -4.7911  3.9739999999999993  2.3374 
H  -4.1874  4.7045  2.4043 
C  -0.8654000000000011  2.964900000000001  0.6231 
C  -5.9816  -2.5142999999999995  4.8904 
H  -6.8216  -2.6748000000000003  5.3035 
C  2.7523999999999997  3.6933  0.1432 
H  3.5938999999999997  3.3158000000000003  0.3721000000000001 
C  2.6975999999999996  4.8746  -0.5889 
H  3.4989999999999988  5.295700000000001  -0.8773 
C  -6.979700000000001  3.0882999999999994  2.689 
H  -7.871  3.1934999999999993  3.0004999999999997 
C  -3.864300000000001  -3.3075  4.1292 
H  -3.2502000000000004  -4.0241  4.0223 
C  3.6529999999999987  -1.8092999999999995  2.7468000000000004 
H  4.3292  -1.1468999999999996  2.8253000000000004 
C  3.026299999999999  -4.089  2.6282 
H  3.260399999999999  -5.0098  2.6182 
C  4.003399999999999  -3.1448  2.7527 
H  4.913599999999999  -3.4021  2.8411999999999997 
C  -5.0745000000000005  -3.5370999999999997  4.7398 
H  -5.283800000000001  -4.4069  5.06 
C  -6.1004000000000005  4.1229000000000005  2.7670000000000003 
H  -6.387500000000001  4.956499999999999  3.1188000000000002 
C  -6.573600000000001  1.8952999999999998  2.1608 
H  -7.185300000000001  1.1721999999999992  2.0993 
