61
unq_CSD-ZUMCUI-02-a
N  -1.7341000000000006  -0.6618999999999993  -0.775500000000001 
N  0.3506999999999998  1.556000000000001  -1.2006999999999994 
C  -5.9252  4.777400000000002  -4.7538 
H  -6.8081000000000005  4.4719  -4.4575000000000005 
H  -5.8661  4.707800000000001  -5.7296000000000005 
H  -5.7952  5.710600000000001  -4.4844 
C  -4.853300000000001  3.914299999999999  -4.119800000000001 
C  -4.25  2.8797000000000015  -4.8157000000000005 
H  -4.4942  2.727400000000001  -5.721 
C  -4.471500000000001  4.118800000000002  -2.8023000000000007 
H  -4.8501  4.847299999999999  -2.324200000000001 
C  -3.2950000000000004  2.0576000000000008  -4.2254000000000005 
C  -3.5573000000000006  3.299200000000001  -2.1571999999999996 
C  -2.9626000000000006  2.254900000000001  -2.8896000000000006 
C  -2.6464000000000003  0.9461000000000013  -5.0322000000000005 
H  -1.6777000000000006  0.9592000000000009  -4.8862000000000005 
H  -2.8355000000000006  1.0805000000000007  -5.9843 
H  -3.0084000000000004  0.0813000000000006  -4.7462 
C  -3.2517000000000005  3.5237999999999996  -0.6981999999999999 
H  -3.7054000000000005  4.336399999999999  -0.3908000000000005 
H  -2.2846  3.6242  -0.5788000000000011 
H  -3.5677000000000003  2.756500000000001  -0.17660000000000053 
C  -1.9614000000000003  1.4054000000000002  -2.158900000000001 
C  -2.4494000000000002  0.23540000000000028  -1.5867000000000004 
C  -3.7643000000000004  -0.26750000000000007  -1.7668999999999997 
H  -4.4627  0.13890000000000136  -2.267100000000001 
C  -3.8340000000000005  -1.4458000000000002  -1.0832999999999995 
H  -4.591900000000001  -2.0153  -1.0283999999999995 
C  -2.5821000000000005  -1.6700999999999997  -0.4753000000000007 
C  -2.2076000000000002  -2.8842  0.35079999999999956 
C  -3.4693000000000005  -3.702399999999999  0.6631 
H  -4.1042000000000005  -3.146099999999999  1.1608999999999998 
H  -3.2273000000000005  -4.4841999999999995  1.2012 
H  -3.8823000000000003  -3.9979999999999993  -0.1756000000000011 
C  -1.2442000000000002  -3.7545  -0.45369999999999955 
H  -1.6683000000000003  -4.0184  -1.2971000000000004 
H  -1.0178000000000003  -4.555999999999999  0.06269999999999953 
H  -0.4269000000000007  -3.2476000000000003  -0.644400000000001 
C  -1.5631000000000004  -2.4547999999999988  1.6654999999999998 
H  -0.6715  -2.0877  1.4865999999999993 
H  -1.4836  -3.2302999999999997  2.2586999999999993 
H  -2.1182000000000003  -1.7706  2.0929 
C  -0.6666000000000007  1.9515000000000011  -2.0853 
C  -0.20370000000000044  3.052200000000001  -2.8424000000000005 
H  -0.6914000000000007  3.5174000000000003  -3.5119000000000007 
C  1.0692999999999993  3.3252000000000006  -2.4378 
H  1.6395999999999997  3.998199999999999  -2.7902000000000005 
C  1.3841999999999999  2.4204000000000008  -1.3951000000000011 
C  2.6781999999999995  2.4375999999999998  -0.6028000000000002 
C  3.2564  3.8649000000000004  -0.6279000000000003 
H  3.4551999999999987  4.120600000000001  -1.5526999999999997 
H  4.0795  3.8933000000000018  -0.0968 
H  2.6019999999999994  4.488899999999999  -0.24990000000000023 
C  3.7037000000000004  1.4817  -1.226700000000001 
H  3.3503  0.5677000000000003  -1.2095000000000002 
H  4.5384  1.5189000000000004  -0.7149999999999999 
H  3.8762999999999996  1.7477999999999998  -2.1538000000000004 
C  2.436799999999999  2.0754  0.8605 
H  1.7148999999999992  2.6318  1.2199999999999989 
H  3.2565  2.231  1.375 
H  2.1849  1.1306000000000012  0.9257999999999988 
