28
unq_CSD-DIYCET-02-a
N  1.7003000000000001  -1.1368000000000003  0.2538999999999998 
N  -0.12180000000000002  -1.2962000000000002  -1.6708 
C  2.7752999999999997  -1.247  1.0804 
C  3.6688  -2.1695  0.5895999999999999 
C  3.1372999999999998  -2.6325000000000003  -0.6013000000000002 
C  1.9383000000000001  -1.9866000000000001  -0.7851999999999999 
C  -1.1727  -1.3665000000000003  -2.7284 
C  -0.6496  -0.7394000000000003  -4.0171 
C  -1.6894  -2.7825  -2.8819 
C  -1.3014000000000001  -3.616  -3.9176 
C  -1.7959  -4.9054  -4.0154 
C  -2.6736  -5.3708  -3.0843 
C  -3.0587999999999997  -4.5408  -2.0064 
C  -2.5921000000000003  -3.2608  -1.9356 
C  0.9189  -2.0464  -1.7703 
H  2.8836000000000004  -0.7499000000000002  1.9406999999999996 
H  4.5373  -2.4309000000000003  1.0112999999999999 
H  3.5568  -3.2913  -1.2237 
H  -2.0172  -0.8648000000000002  -2.3691 
H  0.16149999999999998  -1.3278000000000003  -4.4185 
H  -0.2968  0.2580999999999998  -3.7978 
H  -1.4496  -0.6866000000000003  -4.7407 
H  -0.6718000000000001  -3.2678000000000003  -4.6125 
H  -1.4894  -5.502000000000001  -4.7559000000000005 
H  -3.0579  -6.288600000000001  -3.1837999999999997 
H  -3.6708  -4.8925  -1.2997 
H  -2.9005  -2.6606  -1.1968 
H  1.0105  -2.6724  -2.5445 
