46
unq_CSD-DOBXEY-02-a
N  1.2035  1.8899  0.8012000000000001 
N  -0.03160000000000007  0.04170000000000007  2.1141 
C  1.2693  2.0947999999999998  2.1171 
C  1.9403000000000001  3.2024999999999997  2.6406000000000005 
H  1.9828999999999999  3.3324  3.5805000000000002 
C  2.533  4.0962  1.8009999999999997 
H  2.9834  4.8563  2.1489 
C  2.4721  3.8861  0.4413 
H  2.8754  4.497999999999999  -0.16239999999999988 
C  1.8135  2.7715  -0.021999999999999797 
H  1.7868  2.6142  -0.9584999999999999 
C  0.5846  1.0608  2.9751 
H  -0.1541999999999999  1.5227  3.4651 
C  1.5461  0.4998  4.0253 
H  1.0843  -0.17689999999999984  4.562200000000001 
H  1.8533  1.2262  4.6074 
H  2.3167  0.0918000000000001  3.5787999999999998 
C  -0.907  -0.8159000000000001  2.8518000000000003 
C  -2.2034  -0.36319999999999997  3.1875000000000004 
C  -3.0604  -1.222  3.8798 
H  -3.9335999999999998  -0.9233000000000002  4.1023 
C  -2.6787  -2.4724999999999997  4.242800000000001 
H  -3.2765  -3.0332000000000003  4.724399999999999 
C  -1.423  -2.9239  3.9133 
H  -1.1717  -3.8054  4.1608 
C  -0.5009999999999999  -2.1226  3.2192000000000003 
C  -2.7109  1.0173999999999999  2.8061000000000003 
H  -1.9567999999999999  1.5082  2.368 
C  -3.8712000000000004  0.9516  1.8009999999999997 
H  -3.5486999999999997  0.5794999999999999  0.9531000000000001 
H  -4.2227  1.8536  1.6488 
H  -4.5822  0.3808  2.1589000000000005 
C  -3.1495  1.8283  4.0253 
H  -3.9341000000000004  1.4072  4.433400000000001 
H  -3.3760999999999997  2.7403  3.746 
H  -2.4184  1.8586  4.6776 
C  0.8556  -2.6678  2.8596999999999997 
H  1.3811  -1.9335  2.4282 
C  1.641  -3.1555000000000004  4.095599999999999 
H  1.6359  -2.4559  4.7829999999999995 
H  2.5655  -3.3531  3.8380000000000005 
H  1.2194  -3.9655  4.4518 
C  0.7649  -3.8363  1.8662000000000005 
H  0.3405  -4.603899999999999  2.3027 
H  1.6656  -4.084899999999999  1.5718999999999999 
H  0.23060000000000003  -3.5654  1.0902000000000003 
