22
unq_CSD-DUJPIJ-02-a
N  -1.4909  1.4393000000000011  0.42639999999999745 
N  -1.9840999999999998  -1.088099999999999  0.04169999999999874 
N  -3.0539  -0.25929999999999964  0.09539999999999793 
C  -1.4744000000000002  2.7345000000000006  0.9479000000000006 
C  -2.806  1.0813000000000006  0.4682999999999993 
C  -2.8129999999999997  3.1346000000000007  1.2545000000000002 
C  -0.40390000000000015  3.5813000000000006  1.1874000000000002 
H  0.4660000000000002  3.3104000000000013  1.0025999999999975 
C  -3.6436  2.037600000000001  0.9253999999999998 
H  -4.568  1.9860000000000007  1.0074000000000005 
C  -1.9572000000000003  5.2438  1.9924 
H  -2.1014  6.095700000000001  2.3352000000000004 
C  -0.6569000000000003  4.834300000000001  1.7041000000000004 
H  0.0517000000000003  5.4144000000000005  1.8629999999999995 
C  -3.0237000000000003  4.420800000000002  1.781299999999998 
H  -3.8845  4.7082000000000015  1.985199999999999 
C  -3.8412  -2.1919999999999993  -0.5259 
H  -4.4077  -2.879599999999999  -0.7902000000000022 
C  -4.187  -0.9130999999999991  -0.24399999999999977 
H  -5.0438  -0.5522999999999989  -0.2773000000000003 
C  -2.4622  -2.266499999999999  -0.3384999999999998 
H  -1.9501999999999997  -3.033599999999999  -0.4619 
