46
unq_CSD-KITHUT-02-a
N  -1.2894999999999999  0.1924999999999999  1.5947000000000005 
N  -0.3745999999999996  -1.8935000000000004  0.24410000000000043 
C  -2.8087  -0.0127000000000006  3.9618 
C  -1.6435999999999997  -1.0505000000000004  2.0827999999999998 
C  -2.3947  -1.2135000000000002  3.2592999999999996 
C  -2.1997999999999998  -3.6212000000000004  3.0224 
C  -2.4482  1.2409  3.4156000000000004 
C  -2.6721999999999997  -2.5221000000000005  3.7157999999999998 
H  -3.1871  -2.6475  4.503900000000001 
C  -1.6771999999999998  1.2714999999999996  2.223 
H  -1.4297  2.1166  1.8643 
C  -2.4501999999999997  -5.0575  3.5078000000000005 
C  -1.1523999999999996  -2.1750000000000003  1.3384999999999998 
C  -1.4556  -3.4359  1.8452000000000002 
H  -1.1462999999999997  -4.2024  1.3765 
C  -3.5147  -0.015700000000000713  5.180599999999999 
H  -3.7845  -0.8405000000000005  5.5668999999999995 
C  -2.7973999999999997  2.4409  4.065 
H  -2.5730999999999997  3.276  3.6737 
C  -3.8177999999999996  1.1654  5.8173 
H  -4.277299999999999  1.1433999999999997  6.6488000000000005 
C  -3.4610999999999996  2.4029  5.2596 
H  -3.6795  3.2097999999999995  5.7107 
C  -1.1174  -5.7858  3.7201000000000004 
H  -1.2898999999999998  -6.705400000000001  4.0109 
H  -0.5962999999999998  -5.318700000000001  4.406300000000001 
H  -0.6153  -5.7968  2.8794000000000004 
C  -3.2641999999999998  -5.8065  2.4458 
H  -4.1292  -5.3615  2.3231 
H  -3.4109999999999996  -6.7303  2.7390999999999996 
H  -2.7723  -5.8062000000000005  1.5972999999999997 
C  -3.2304999999999997  -5.101500000000001  4.8214 
H  -4.1021  -4.671  4.697299999999999 
H  -2.7275  -4.6262  5.5156 
H  -3.3613  -6.0346  5.0927 
C  0.09109999999999996  -2.9400000000000004  -0.5779999999999998 
C  1.4521000000000002  -3.0625  -0.8077000000000001 
H  2.0568000000000004  -2.4786  -0.36439999999999984 
C  -0.7715999999999998  -3.8223000000000003  -1.2326000000000001 
H  -1.7089999999999999  -3.7613000000000003  -1.0884999999999998 
C  1.0880000000000005  -4.8927000000000005  -2.3171999999999997 
H  1.4291000000000005  -5.553800000000001  -2.9081 
C  1.9445000000000001  -4.0247  -1.6718000000000002 
H  2.8803000000000005  -4.0864  -1.8228 
C  -0.26729999999999965  -4.7873  -2.0928 
H  -0.8632  -5.381600000000001  -2.5332 
