24
unq_CSD-KIWHUT-02-a
N  1.0806  1.6906000000000003  -0.7468000000000004 
N  2.1785  -0.2647999999999997  -0.6096000000000004 
C  1.0196999999999998  3.0816000000000003  -0.8912000000000004 
C  -0.23899999999999988  3.6524000000000005  -1.1237000000000004 
C  -0.3866999999999998  5.0242  -1.2824999999999998 
C  0.7239999999999998  5.8614  -1.2045000000000003 
C  1.9819  5.3139  -0.9489000000000001 
C  2.1404  3.9379000000000004  -0.7828999999999997 
C  2.1908  1.0111000000000003  -0.9950999999999999 
C  3.2394000000000003  -1.0892  -1.0225999999999997 
C  3.815  -0.9889999999999999  -2.3062 
C  4.8743  -1.8282999999999998  -2.6715 
C  5.3591  -2.7847  -1.7849 
C  4.795  -2.8975999999999997  -0.5186999999999999 
C  3.7460999999999998  -2.0498  -0.14039999999999964 
H  0.6297000000000001  6.809199999999999  -1.3272000000000004 
H  2.7460999999999998  5.886899999999999  -0.8868999999999998 
H  3.0021  3.5715  -0.5952000000000002 
H  2.9445  1.4072999999999998  -1.4283000000000001 
H  3.4813000000000005  -0.3435999999999999  -2.9328 
H  5.265500000000001  -1.7452  -3.5436 
H  6.086600000000001  -3.362  -2.0463 
H  5.119200000000001  -3.5601  0.09640000000000004 
H  3.3765000000000005  -2.1287  0.7404000000000002 
