31
unq_CSD-KOLFUO-02-a
N  0.3518  -1.1311  -1.5476999999999999 
N  1.5161  1.1804999999999999  -0.35109999999999975 
N  3.9861  0.15770000000000017  -4.2837 
C  1.3625  -0.9775999999999998  -2.3808 
C  2.3026999999999997  0.06450000000000022  -2.3346999999999998 
C  2.3334  1.1068000000000002  -1.3794 
C  3.2455  0.12570000000000014  -3.4143999999999997 
C  1.5988  2.3390999999999997  0.4812000000000003 
C  1.7638  3.6169  -0.044299999999999784 
C  1.7751000000000001  4.7120999999999995  0.8106999999999998 
C  1.6029  4.539299999999999  2.1740000000000004 
C  1.4308  3.2660000000000005  2.6968000000000005 
C  1.4292  2.1639000000000004  1.8569000000000004 
C  -0.5078  -2.259  -1.758 
C  -0.01550000000000007  -3.5067  -2.127 
C  -0.8908  -4.5687999999999995  -2.3308999999999997 
C  -2.2506  -4.3972999999999995  -2.1627 
C  -2.739  -3.1677  -1.7544 
C  -1.8748999999999998  -2.0974  -1.5520999999999998 
H  1.4546000000000001  -1.6067999999999998  -3.0591999999999997 
H  2.9722  1.7748000000000004  -1.4788999999999999 
H  1.8681999999999999  3.7357  -0.9605999999999999 
H  1.8927  5.566599999999999  0.46440000000000037 
H  1.609  5.2775  2.7405 
H  1.3283  3.1485  3.6139 
H  1.3065  1.3087000000000004  2.2032 
H  0.8989  -3.6281999999999996  -2.2428999999999997 
H  -0.5537000000000001  -5.3986  -2.5820999999999996 
H  -2.8336  -5.1049999999999995  -2.3221999999999996 
H  -3.6502  -3.0589999999999997  -1.6073 
H  -2.2065  -1.2683999999999997  -1.2919 
