33
unq_CSD-KOLTEM-02-a
N  1.5227000000000002  -1.1473  0.34629999999999983 
N  0.31930000000000014  1.1215  1.5428000000000002 
C  2.37  -1.005  1.3573 
C  2.327  -0.01079999999999992  2.3328 
C  1.3428  0.9754000000000003  2.3829999999999996 
C  3.3664  0.001100000000000101  3.4373 
C  -0.5488999999999999  2.2381  1.7464 
C  -0.09419999999999984  3.4919000000000002  2.1846 
C  -0.9836999999999998  4.5257000000000005  2.3631999999999995 
C  -2.3386  4.370900000000001  2.1157999999999997 
C  -2.7921  3.1325000000000003  1.6382999999999996 
C  -1.9061  2.0827999999999998  1.448 
C  1.6255000000000002  -2.3082  -0.4761000000000002 
C  1.9196  -3.5799000000000003  0.05219999999999958 
C  1.9662000000000002  -4.6878  -0.7884000000000002 
C  1.6923000000000001  -4.5549  -2.1472 
C  1.3822  -3.3095999999999997  -2.6685000000000003 
C  1.3293000000000001  -2.191  -1.8262 
H  3.0621  -1.6235  1.4184999999999994 
H  1.4065  1.5966000000000002  3.0724999999999993 
H  3.8537  -0.8269  3.4294999999999995 
H  3.973  0.7306000000000001  3.2937999999999996 
H  2.9334  0.10850000000000004  4.2867999999999995 
H  0.8110000000000002  3.6217000000000006  2.3569999999999998 
H  -0.6719999999999999  5.349200000000001  2.6608999999999994 
H  -2.9362  5.069500000000001  2.2587999999999995 
H  -3.6949  3.0153  1.4465999999999997 
H  -2.2156  1.2699  1.1207999999999996 
H  2.0815  -3.6822  0.9617999999999998 
H  2.1813000000000002  -5.5238  -0.4428000000000001 
H  1.7252  -5.3  -2.7047000000000003 
H  1.1965000000000001  -3.2145  -3.5745000000000005 
H  1.1043  -1.3594  -2.1762 
