59
unq_CSD-EGICEF-02-a
N  1.3168000000000006  -1.3842999999999996  0.8462000000000005 
N  1.4275000000000002  1.4612000000000007  0.46419999999999995 
C  1.4837000000000007  3.234800000000001  -1.3023999999999996 
H  1.343  4.168500000000001  -1.4067999999999996 
C  1.5973000000000006  -1.7408000000000001  -2.1071999999999997 
H  0.7782  -1.2257999999999996  -1.8995999999999995 
H  2.3664000000000005  -1.3234000000000004  -1.6437 
C  1.8938000000000006  1.1132  -2.5599 
H  2.110899999999999  0.5613999999999999  -1.8175 
C  1.4445999999999994  -3.1776999999999997  -1.7049000000000003 
C  1.4940999999999995  -3.9776  -2.8646000000000003 
H  1.3497000000000003  -4.9166  -2.8979999999999997 
C  1.7752  -3.1559999999999997  -3.9572 
H  1.9138000000000002  -3.473  -4.8424 
C  1.8322000000000003  -1.8022999999999998  -3.5861 
C  1.9445999999999994  -0.6551  -4.3725000000000005 
H  2.0950000000000006  -0.7788000000000004  -5.3023 
C  1.8546999999999993  0.6597  -3.9093999999999998 
C  1.6496999999999993  1.8629000000000007  -4.7677 
H  0.7964000000000002  1.7921000000000005  -5.2619 
H  2.388399999999999  1.9448999999999996  -5.4244 
C  1.6334  3.0795000000000003  -3.8371 
H  2.4473000000000003  3.6256999999999993  -3.9529 
H  0.8377999999999997  3.6453999999999995  -4.016299999999999 
C  1.5684000000000005  2.4986000000000006  -2.4608 
C  1.2912999999999997  -3.5603  -0.3933 
H  1.0967000000000002  -4.4788  -0.24880000000000013 
C  1.3872  -2.7541  0.7746000000000004 
C  1.764899999999999  -3.2858  2.0637 
C  1.9383  -4.7346  2.3809999999999993 
H  1.2010000000000005  -5.2459  1.9865000000000004 
H  1.9381000000000004  -4.8584  3.3532 
H  2.7891999999999992  -5.0504999999999995  2.0116000000000005 
C  1.9832  -2.2180999999999997  2.8964000000000008 
C  2.4875000000000007  -2.2413999999999996  4.3051 
H  2.3514  -3.1475  4.6801 
H  1.955  -1.6071999999999997  4.847499999999999 
C  3.9609000000000005  -1.8747999999999996  4.420599999999999 
H  4.493099999999998  -2.4816000000000003  3.8648 
H  4.2448999999999995  -1.9542000000000002  5.355300000000001 
H  4.0929  -0.9526000000000003  4.1164 
C  1.7136999999999993  -1.0343999999999998  2.1274000000000006 
C  1.8908000000000005  0.27339999999999964  2.558700000000001 
H  2.080399999999999  0.38949999999999996  3.4822999999999995 
C  1.8229000000000006  1.4324000000000003  1.7945000000000002 
C  2.1998999999999995  2.747699999999999  2.2166000000000006 
C  2.7337000000000007  3.083100000000001  3.5805999999999996 
H  2.1690000000000005  2.6429  4.2642999999999995 
H  2.6694999999999993  4.061100000000001  3.7198 
C  4.1768  2.6498  3.778200000000001 
H  4.2387999999999995  1.6749999999999998  3.6990000000000007 
H  4.4815000000000005  2.9251999999999994  4.668 
H  4.740300000000001  3.0697  3.0954000000000006 
C  2.0371000000000006  3.577000000000001  1.1293999999999995 
C  2.3214000000000006  5.0429  1.0436000000000005 
H  2.950899999999999  5.211200000000001  0.3117000000000001 
H  2.7125000000000004  5.3496999999999995  1.8881000000000006 
H  1.4868000000000006  5.528099999999999  0.8746999999999998 
C  1.582699999999999  2.7567999999999993  0.038300000000000445 
