35
unq_CSD-ERAJAI-02-a
N  0.8357999999999999  -1.7832999999999999  0.018899999999999473 
N  1.91  0.6065999999999998  -0.3321000000000005 
C  0.5709  -3.0911999999999997  0.21579999999999977 
C  1.7456999999999998  -3.8103  0.40919999999999934 
C  2.7899  -2.8939999999999997  0.3304999999999998 
C  2.1966  -1.6601  0.08909999999999929 
C  2.7314999999999996  -0.3738999999999999  -0.15399999999999991 
C  2.3969  1.9342000000000001  -0.7550000000000008 
C  3.8315  2.2035000000000005  -0.31840000000000046 
C  4.0845  2.6059000000000005  0.9878999999999998 
C  5.3814  2.8169999999999997  1.4211 
C  6.4437  2.6424  0.5529999999999999 
C  6.2092  2.2577000000000003  -0.7481 
C  4.9097  2.0378000000000003  -1.1779000000000002 
C  2.2232  2.1423  -2.2531000000000008 
C  2.1794  3.4443000000000006  -2.7359000000000004 
C  2.1558  3.6929000000000003  -4.098700000000001 
C  2.1736  2.6444000000000005  -4.9924 
C  2.1886  1.3493  -4.525 
C  2.21  1.0928999999999998  -3.1605000000000003 
H  -0.30069999999999997  -3.469  0.22089999999999943 
H  1.8197999999999999  -4.7454  0.5632999999999999 
H  3.7169  -3.0755  0.42459999999999987 
H  3.6708999999999996  -0.2347999999999999  -0.18490000000000073 
H  1.8211  2.6138  -0.2979000000000003 
H  3.3601  2.7371000000000003  1.5888999999999998 
H  5.5428  3.0823000000000005  2.3198999999999996 
H  7.3335  2.7874000000000003  0.8544 
H  6.934200000000001  2.1433000000000004  -1.3508000000000004 
H  4.7545  1.7695000000000003  -2.075 
H  2.1668  4.1722  -2.1264000000000003 
H  2.1266  4.5875  -4.418900000000001 
H  2.1752  2.8140000000000005  -5.9272 
H  2.1832  0.6263000000000001  -5.141400000000001 
H  2.2145  0.19630000000000036  -2.8472000000000004 
