30
unq_CSD-HUPKOT-02-a
N  -0.46689999999999987  -1.6759  0.8147 
N  1.7930000000000001  -0.5308999999999999  0.3132999999999999 
C  -1.6486999999999998  -2.2424999999999997  1.0106 
H  -2.4179  -1.8269  0.6406000000000001 
C  -1.8098  -3.4120999999999997  1.7313 
H  -2.6764  -3.7812  1.8557000000000001 
C  -0.7138999999999998  -4.0343  2.2622999999999998 
H  -0.8249999999999997  -4.8278  2.7738 
C  0.5728  -3.511  2.0601 
C  1.7851  -4.0571  2.5258 
H  1.7725999999999997  -4.8278  3.0808999999999997 
C  2.9724000000000004  -3.4882  2.1869 
H  3.7769000000000004  -3.8992  2.4798999999999998 
C  3.0553999999999997  -2.3141  1.4180000000000001 
C  4.2715000000000005  -1.7603  0.8544 
H  5.0950999999999995  -2.2208  0.9694 
C  4.243900000000001  -0.611  0.17490000000000006 
H  5.0172  -0.3389  -0.30480000000000007 
C  3.019  0.26239999999999997  0.1499999999999999 
H  2.8917  0.7191000000000001  -0.7424000000000001 
C  1.8760000000000003  -1.6652  0.9989999999999999 
C  0.6389000000000005  -2.32  1.3092000000000001 
C  3.1104000000000003  1.3452000000000002  1.2563 
H  2.2163000000000004  1.7505000000000002  1.3853 
H  3.3738  0.9151000000000002  2.1083 
C  4.101999999999999  2.4317  0.9236 
H  3.9066  2.9493  0.15159999999999996 
C  5.151800000000001  2.7381  1.5369000000000002 
H  5.8173  3.4021999999999997  1.2633 
H  5.360399999999999  2.2605000000000004  2.3672 
