34
unq_CSD-PADFAC-02-a
N  -0.13479999999999992  0.19010000000000105  2.3580999999999985 
N  0.7253  -1.6283999999999992  1.3695999999999984 
C  -1.1331  2.258000000000001  3.106 
H  -0.40459999999999996  2.8652999999999995  2.858599999999999 
H  -1.597  2.6088000000000005  3.894499999999999 
H  -1.7643  2.1845  2.359399999999999 
C  -0.5719  0.905800000000001  3.4192 
C  -0.4734  0.4150000000000009  4.692799999999998 
H  -0.8075  0.9198000000000004  5.425399999999998 
C  0.11809999999999998  -0.8240999999999996  4.912299999999998 
H  0.21020000000000005  -1.1516000000000002  5.799999999999999 
C  0.564  -1.5688999999999993  3.8706999999999994 
H  0.9697000000000001  -2.4152000000000005  4.011899999999999 
C  0.40059999999999996  -1.0385999999999989  2.558 
C  1.3855  -2.8942999999999994  1.4324999999999992 
C  0.6291000000000001  -4.068099999999999  1.524799999999999 
H  -0.32099999999999995  -4.008699999999999  1.5177999999999994 
C  1.2221000000000002  -5.3038  1.6268999999999991 
H  0.6881  -6.0893999999999995  1.6617999999999995 
C  2.5972  -5.394699999999999  1.6785999999999994 
H  3.0207  -6.2398  1.7736999999999998 
C  3.3434000000000004  -4.2477  1.591899999999999 
H  4.2905  -4.3199  1.6170999999999989 
C  2.7786  -2.982899999999999  1.4688999999999997 
C  3.6592  -1.7565999999999988  1.4227999999999987 
H  3.0688  -0.9710000000000001  1.2367999999999988 
C  4.6928  -1.8265999999999991  0.31129999999999924 
H  5.2501  -2.623899999999999  0.43290000000000006 
H  5.2584  -1.0257000000000005  0.3392999999999997 
H  4.2383  -1.8766999999999996  -0.5555000000000003 
C  4.3317  -1.5187999999999988  2.764899999999999 
H  3.6498000000000004  -1.4558999999999997  3.465299999999999 
H  4.8437  -0.6829999999999998  2.729899999999999 
H  4.9368  -2.2637  2.9647999999999985 
