50
unq_CSD-FEHROD-02-a
N  2.3401999999999994  -0.3233999999999999  -0.3891 
N  1.3942999999999994  1.3629000000000002  -1.3784 
C  2.5675  0.7098  -1.2146000000000003 
C  3.879599999999999  1.0310000000000001  -1.9732000000000003 
C  3.6216  0.9119999999999999  -3.48 
H  4.466499999999999  1.0191  -3.966 
H  2.9937999999999994  1.6107999999999998  -3.7603 
H  3.2404  0.03169999999999984  -3.6782000000000004 
C  4.371299999999999  2.4468  -1.6713 
H  5.221799999999999  2.6029000000000004  -2.133 
H  4.501399999999999  2.5483  -0.7051000000000003 
H  3.7070999999999996  3.0966  -1.9816000000000003 
C  5.0514  0.07379999999999987  -1.6501000000000001 
H  5.830199999999999  0.31599999999999984  -2.1945 
H  4.785699999999999  -0.8472999999999999  -1.8528000000000002 
H  5.281  0.14700000000000024  -0.7008000000000001 
C  3.294999999999999  -1.2091  0.1814 
C  3.908499999999999  -0.8505  1.3754999999999997 
C  4.6993  -1.7706  2.0538 
H  5.1184  -1.5265  2.8703000000000003 
C  4.8768  -3.0491  1.5363999999999995 
H  5.4167  -3.6783  2.0004999999999997 
C  4.2634  -3.4077  0.34220000000000006 
H  4.3837  -4.2808  -0.010799999999999699 
C  3.4722  -2.4865  -0.3360000000000003 
C  3.6977  0.5211999999999999  1.9550999999999998 
H  4.157099999999999  0.5857999999999999  2.8183 
H  2.737799999999999  0.6770999999999998  2.0845000000000002 
H  4.0575  1.1945000000000001  1.3415999999999997 
C  2.8029  -2.8988  -1.6273 
H  2.8617999999999997  -3.8719  -1.7299000000000002 
H  3.2520999999999995  -2.4633  -2.3815 
H  1.8609999999999998  -2.6290999999999998  -1.6081000000000003 
C  1.1648999999999994  2.5608999999999997  -2.1417 
C  0.5538999999999996  2.4772000000000003  -3.3874000000000004 
C  0.12219999999999942  3.6330000000000005  -4.0277 
H  -0.2959000000000005  3.5766000000000004  -4.8795 
C  0.3022999999999998  4.871700000000001  -3.4238 
H  0.007899999999999352  5.6617  -3.8618 
C  0.9147999999999996  4.9543  -2.1781 
H  1.0376999999999992  5.8012999999999995  -1.7652 
C  1.3449  3.7996000000000003  -1.5378000000000003 
C  0.2875999999999994  1.1639  -4.0702 
H  0.6182999999999996  0.43130000000000024  -3.5088 
H  0.7481999999999998  1.1457000000000002  -4.9349 
H  -0.6763000000000003  1.0575  -4.2109000000000005 
C  1.968  3.9669000000000003  -0.16000000000000014 
H  1.3554999999999993  4.4719  0.4153000000000002 
H  2.814899999999999  4.452400000000001  -0.24120000000000008 
H  2.1327  3.0848  0.2333999999999996 
