29
unq_CSD-SALNEC-02-a
N  1.4705000000000004  0.2801  -1.1805000000000003 
N  -0.8492999999999995  -1.0896999999999997  -1.6660000000000004 
C  2.7913000000000006  0.8161000000000005  -0.9175000000000004 
C  2.884900000000001  1.1574  0.5525999999999982 
H  3.6923000000000004  1.6510000000000007  0.7163000000000004 
H  2.8953999999999995  0.34799999999999986  1.0698000000000008 
H  2.1277  1.6895000000000007  0.8077000000000005 
C  3.0283000000000007  2.115800000000001  -1.6875 
H  3.8646000000000003  2.5013999999999994  -1.4145000000000003 
H  2.3165000000000004  2.7328  -1.5014000000000003 
H  3.0537  1.930600000000001  -2.6287000000000003 
C  -0.25619999999999976  -0.34640000000000004  -2.768700000000001 
H  -0.7155999999999993  0.5028000000000006  -2.8645999999999994 
H  -0.3755999999999995  -0.8450999999999995  -3.5915 
C  1.1876000000000007  -0.09710000000000019  -2.5540000000000003 
H  1.6871  -0.8984999999999994  -2.7761999999999993 
H  1.4816000000000003  0.6116000000000001  -3.1487 
C  3.8731  -0.21859999999999946  -1.215300000000001 
H  4.6171999999999995  0.21090000000000053  -1.6433 
H  3.517500000000001  -0.8960999999999997  -1.7943999999999996 
H  4.165500000000001  -0.6209999999999996  -0.39369999999999905 
C  -2.3232999999999997  -1.1099999999999994  -1.7734000000000005 
H  -2.5813999999999995  -1.6364999999999998  -2.533200000000001 
H  -2.6481  -0.21300000000000008  -1.879900000000001 
H  -2.6965  -1.4931  -0.9763000000000002 
C  -0.35659999999999936  -2.4781999999999997  -1.7063000000000006 
H  -0.5154999999999994  -2.8493999999999997  -2.5770999999999997 
H  -0.8188999999999993  -3.0008999999999997  -1.0465 
H  0.5852000000000004  -2.4894999999999996  -1.5204000000000004 
