60
unq_CSD-WARJIJ-02-a
N  -0.4080999999999999  -0.9448000000000001  -1.7889999999999997 
N  -0.617  1.246  -1.5332 
C  -0.03610000000000002  -2.1142000000000003  -2.5180999999999996 
C  1.1932  -2.1505  -3.2124999999999995 
C  1.5552000000000001  -3.3294  -3.8584999999999994 
C  0.7524  -4.4574  -3.7941999999999996 
C  -0.4322999999999999  -4.424  -3.0850999999999997 
C  -0.8538999999999999  -3.2555  -2.4420999999999995 
C  2.1426  -0.9626000000000001  -3.1664999999999996 
C  3.1113  -0.8962000000000001  -4.3457 
C  2.9302  -0.9709000000000001  -1.8461999999999996 
C  -2.1619  -3.2541  -1.6677 
C  -3.3144  -3.8413000000000004  -2.4864999999999995 
C  -2.0100999999999996  -4.0120000000000005  -0.3453999999999997 
C  -0.7041999999999999  0.2237  -2.3762999999999996 
C  -1.0997999999999999  0.3533999999999997  -3.8087999999999997 
C  -0.5647  1.3625999999999996  -4.617299999999999 
C  -0.9591000000000001  1.4592  -5.948499999999999 
C  -1.8848  0.5701999999999998  -6.469799999999999 
C  -2.4276  -0.4255  -5.6674999999999995 
C  -2.0286  -0.5394000000000001  -4.3405 
C  -1.0654000000000001  2.5714999999999995  -1.7448999999999995 
C  -2.4362000000000004  2.8709999999999996  -1.7588 
C  -2.8204000000000002  4.2157  -1.7894999999999994 
C  -1.8863  5.2259  -1.7906999999999993 
C  -0.5408  4.9184  -1.7683 
C  -0.10319999999999996  3.5957999999999997  -1.7534999999999998 
C  -3.4632999999999994  1.7804000000000002  -1.6795999999999998 
C  1.3645  3.2772999999999994  -1.7357999999999993 
H  2.3356000000000003  -3.345  -4.3614999999999995 
H  1.0086  -5.2556  -4.2271 
H  -1.0096999999999998  -5.2475000000000005  -3.0406999999999997 
H  1.6076000000000001  -0.14290000000000003  -3.2003999999999997 
H  3.6382000000000003  -0.06020000000000003  -4.3064 
H  2.6483  -0.9355000000000002  -5.1865 
H  3.7786  -1.6908  -4.338699999999999 
H  3.4718999999999998  -0.20040000000000013  -1.7580999999999998 
H  2.3316  -1.0050000000000001  -1.0315999999999992 
H  3.5069999999999997  -1.7222000000000002  -1.8024999999999993 
H  -2.4204  -2.2993  -1.4712999999999994 
H  -4.1901  -3.7796000000000003  -1.9769999999999994 
H  -3.4609999999999994  -3.3806000000000003  -3.3534999999999995 
H  -3.1376  -4.7539  -2.7060999999999997 
H  -2.8491999999999997  -3.9813  0.1759000000000004 
H  -1.3326999999999998  -3.5540000000000003  0.19430000000000014 
H  -1.7255  -4.9612  -0.47969999999999935 
H  0.08800000000000008  1.9703  -4.257999999999999 
H  -0.5695999999999999  2.1639999999999997  -6.479799999999999 
H  -2.1486  0.6172999999999997  -7.3770999999999995 
H  -3.0764999999999993  -1.0155  -6.028499999999999 
H  -2.4242999999999997  -1.2269  -3.7648999999999995 
H  -3.7322999999999995  4.3796  -1.7936999999999994 
H  -2.1467  6.1185  -1.8240999999999996 
H  0.08079999999999998  5.592  -1.7256 
H  -3.2836999999999996  1.1564999999999999  -0.9667999999999992 
H  -3.4815999999999994  1.2096999999999998  -2.4755 
H  -4.3625  2.1403  -1.5252999999999997 
H  1.602  2.7002999999999995  -0.9902999999999995 
H  1.9375  4.0405999999999995  -1.5686999999999998 
H  1.6184  2.9149000000000003  -2.5614999999999997 
