38
unq_CSD-WIPWAW-02-a
N  1.7470000000000003  0.21230000000000082  -0.8279999999999994 
N  0.9999000000000002  -1.2573999999999996  1.2544000000000004 
C  2.6993000000000005  -0.49179999999999957  -0.11960000000000015 
C  3.9730000000000003  -0.25399999999999956  -0.6829999999999998 
H  4.7973  -0.6242999999999999  -0.3916000000000004 
C  3.7944  0.607800000000001  -1.729 
H  4.478199999999999  0.9555000000000007  -2.2901999999999996 
C  2.4174  0.8920000000000012  -1.8312 
C  2.2655  -1.2771999999999997  0.9715000000000007 
H  2.8770000000000002  -1.797699999999999  1.4791000000000007 
C  1.7493000000000003  1.7644000000000002  -2.8152999999999997 
C  2.5589999999999997  2.5265000000000004  -3.6497 
H  3.5038000000000005  2.4551  -3.5893999999999995 
C  1.9836000000000005  3.3942000000000014  -4.5721 
H  2.5370000000000004  3.915000000000001  -5.1416 
C  0.6009000000000002  3.4986000000000015  -4.6577 
H  0.20829999999999993  4.0916000000000015  -5.2888 
C  -0.20759999999999978  2.7364000000000015  -3.8232999999999997 
H  -1.1535  2.8084000000000007  -3.8837 
C  0.36660000000000004  1.8699000000000012  -2.9009 
H  -0.1867000000000001  1.3484000000000016  -2.3315 
C  0.5162  -1.882699999999999  2.4288000000000007 
C  0.9953000000000003  -1.4963999999999995  3.6601999999999997 
C  0.4478  -2.036999999999999  4.829700000000001 
H  0.7366999999999999  -1.745099999999999  5.687100000000001 
C  -0.5463999999999998  -3.0275999999999996  4.699 
H  -0.9093  -3.4320999999999993  5.4769000000000005 
C  -0.9905999999999999  -3.4091999999999993  3.4818999999999996 
H  -1.6591  -4.083099999999999  3.4372000000000007 
C  -0.5173999999999999  -2.8663999999999996  2.2860999999999994 
C  -0.9905999999999999  -3.3245999999999993  0.9739000000000004 
H  -0.22129999999999983  -3.5394999999999994  0.40660000000000096 
H  -1.5202  -2.6160999999999994  0.5520999999999994 
H  -1.5460999999999998  -4.123799999999999  1.0881000000000007 
C  2.0381000000000005  -0.41059999999999874  3.7957 
H  2.9316  -0.8130999999999995  3.7940000000000005 
H  1.8992  0.07169999999999987  4.638 
H  1.9598  0.21440000000000126  3.0451999999999995 
