22
unq_CSD-WORGIV-02-a
N  1.3180999999999994  -0.5421999999999999  -1.5426000000000002 
N  -0.9748000000000001  -1.6925  -1.0573000000000006 
N  -0.9439000000000002  -3.2098999999999998  -2.6500000000000004 
C  -0.2644000000000002  -2.1799999999999997  -2.0732000000000004 
C  -2.1423  -3.3764000000000003  -1.9380000000000006 
C  1.0226999999999995  -1.6185999999999998  -2.3487000000000005 
C  -2.6455  -5.2504  -3.3465000000000007 
H  -3.1999000000000004  -5.9562  -3.5904000000000007 
C  -2.1300000000000003  -2.4137999999999997  -0.9614000000000003 
H  -2.8024000000000004  -2.2744999999999997  -0.3333000000000004 
C  -0.6093000000000002  -4.034  -3.7268000000000003 
H  0.17830000000000013  -3.8972999999999995  -4.202100000000001 
C  2.6065999999999994  -0.1874  -1.8410000000000002 
H  3.0711999999999993  0.5156000000000001  -1.4468000000000005 
C  -2.9926000000000004  -4.4475999999999996  -2.3152000000000004 
H  -3.7867  -4.5977  -1.8539000000000003 
C  -1.4404000000000003  -5.0218  -4.0608 
H  -1.2256000000000005  -5.5736  -4.7778 
C  3.1098  -1.0160999999999998  -2.8013000000000003 
H  3.9621999999999993  -0.9758999999999999  -3.1700000000000004 
C  2.1133999999999995  -1.9331999999999998  -3.1301000000000005 
H  2.1724999999999994  -2.6214  -3.7533000000000003 
