56
unq_CSD-WUBTES-02-a
N  2.3293  -0.02859999999999996  -0.41389999999999993 
N  0.059699999999999975  -1.5617000000000005  -1.4171999999999998 
C  0.9249999999999998  -2.6134000000000004  -1.0160999999999998 
C  0.42349999999999993  -3.9244000000000003  -0.9306999999999994 
H  -0.49570000000000003  -4.0732  -1.1166999999999998 
C  1.2066999999999999  -4.9908  -0.5930999999999997 
H  0.8351999999999999  -5.863700000000001  -0.5750999999999995 
C  2.5284999999999997  -4.799600000000001  -0.27749999999999986 
H  3.0783  -5.5324  -0.023899999999999366 
C  3.036  -3.5348000000000006  -0.33669999999999956 
H  3.9516999999999998  -3.4041000000000006  -0.11759999999999948 
C  2.2801  -2.4149000000000003  -0.7032999999999996 
C  2.9514  -1.0943000000000005  -0.7556999999999996 
C  4.4143  -1.1421000000000001  -1.1980999999999997 
H  4.6514999999999995  -0.2978000000000005  -1.6334999999999997 
H  4.5401  -1.8812000000000002  -1.8291999999999997 
H  4.9883  -1.2791000000000001  -0.4166999999999996 
C  3.0057  1.2923  -0.3160999999999996 
H  2.3213  1.8877999999999995  0.10570000000000057 
C  3.3648  2.0031  -1.6224999999999996 
H  4.1627  1.5819999999999999  -2.0303999999999998 
H  2.6145  1.9356  -2.2646999999999995 
C  3.6513999999999998  3.4552999999999994  -1.3123999999999998 
H  2.8281  3.882199999999999  -0.9678999999999998 
H  3.9130000000000003  3.9237  -2.1447999999999996 
C  4.7753  3.6051  -0.27059999999999995 
H  5.6296  3.2959999999999994  -0.6632999999999996 
H  4.8765  4.5577000000000005  -0.02939999999999987 
C  4.4721  2.7989999999999995  0.9780000000000006 
H  5.244  2.8468  1.5968 
H  3.6865  3.1876999999999995  1.4369000000000005 
C  4.1921  1.3493999999999993  0.6417000000000002 
H  3.9846000000000004  0.8460000000000001  1.4686000000000003 
H  4.9882  0.9415999999999993  0.21870000000000012 
C  -1.4933  -3.3181000000000003  -3.3478999999999997 
H  -0.8121  -4.022200000000001  -3.2982999999999993 
H  -1.8909  -3.3117  -4.2437 
H  -2.1907  -3.4902000000000006  -2.6822999999999997 
C  -2.0775  -0.4297000000000004  -3.1384999999999996 
H  -2.7369  -0.6005000000000003  -2.4341999999999997 
H  -2.5081  -0.5112000000000005  -4.0149 
H  -1.7154  0.47639999999999993  -3.0351 
C  0.5530999999999999  -1.3778000000000001  -4.425599999999999 
C  1.5231999999999999  -2.5535  -4.523499999999999 
H  1.9786000000000001  -2.6745000000000005  -3.6634999999999995 
H  2.1869  -2.3719  -5.2208 
H  1.0273999999999999  -3.3691000000000004  -4.7467 
C  1.3973  -0.11940000000000062  -4.2203 
H  1.8746999999999998  -0.18310000000000048  -3.3671999999999995 
H  0.8134999999999999  0.6675999999999993  -4.212 
H  2.0438  -0.039700000000000735  -4.9521 
C  -0.17640000000000003  -1.2504000000000004  -5.7238 
H  -0.7081999999999999  -0.4283999999999999  -5.7211 
H  -0.7694000000000001  -2.0246000000000004  -5.840999999999999 
H  0.4693  -1.2217000000000002  -6.4597 
Si  -0.7027000000000001  -1.6630000000000003  -3.0088 
