28
unq_CSD-XEPFII-02-a
N  2.0003  -0.07420000000000004  0.9474999999999998 
N  1.2769  -1.5792000000000002  -0.43900000000000006 
C  2.3310000000000004  -1.2334  0.3586999999999998 
C  3.5335  -1.8789  0.6193999999999997 
H  3.7470999999999997  -2.6905  0.21989999999999998 
C  4.3938  -1.2589000000000001  1.4974999999999996 
H  5.2109  -1.6567  1.6932999999999998 
C  4.0643  -0.057600000000000096  2.0915 
H  4.6568  0.35630000000000006  2.6778000000000004 
C  2.8516000000000004  0.5192999999999999  1.8061999999999996 
H  2.6159999999999997  1.3235999999999999  2.2095000000000002 
C  1.4551  -2.7329  -1.2652999999999999 
C  0.9216  -3.9451  -0.9176000000000002 
H  0.4113  -4.019  -0.14329999999999998 
C  1.1372  -5.0829  -1.7218 
C  1.9068  -4.9559999999999995  -2.8775 
C  2.4501  -3.7452  -3.1992000000000003 
H  2.9779999999999998  -3.6675000000000004  -3.9605 
C  2.2254  -2.6334  -2.4106 
H  2.5946999999999996  -1.8143  -2.6505 
C  0.5402  -6.3882  -1.3366000000000002 
H  0.7797  -7.0543000000000005  -1.9851 
H  -0.41559999999999997  -6.3054  -1.3016 
H  0.8698  -6.6491  -0.4727999999999999 
C  2.114  -6.1473  -3.7880000000000003 
H  2.6651999999999996  -5.8889  -4.5312 
H  1.2646  -6.4546  -4.111 
H  2.5457  -6.8519000000000005  -3.3003 
