48
unq_CSD-XEWHIS-02-a
N  1.4585  1.8010000000000002  0.43510000000000026 
N  1.4043999999999999  0.9795000000000016  -1.6407000000000003 
C  1.9701  1.8457000000000008  -0.7986 
C  3.0539  2.7867000000000015  -1.177 
C  4.1408  3.0112000000000005  -0.34670000000000023 
H  4.194  2.561300000000001  0.47630000000000017 
C  5.1431  3.8842000000000017  -0.7074000000000003 
H  5.8804  4.0075  -0.13759999999999994 
C  5.0714999999999995  4.575900000000001  -1.8969 
H  5.7542  5.173200000000001  -2.1383 
C  3.9932000000000003  4.3824000000000005  -2.7287 
H  3.9346  4.8588000000000005  -3.5369 
C  2.9927  3.486600000000001  -2.3812 
H  2.2662  3.3497000000000003  -2.9613 
C  1.7591999999999999  2.748000000000001  1.4596999999999998 
C  2.4168000000000003  2.2711000000000006  2.6197999999999997 
C  2.6109  3.0547000000000004  3.7165999999999997 
H  3.054  2.713700000000001  4.471799999999999 
C  2.1574  4.334000000000001  3.7062999999999997 
H  2.2682  4.8636  4.473299999999999 
C  1.5365000000000002  4.8757  2.5976999999999997 
H  1.2490999999999999  5.7705  2.6064999999999996 
C  1.3327  4.065600000000002  1.4360999999999997 
C  2.9738  0.8588000000000005  2.6581 
H  3.6567000000000003  0.7983000000000011  3.3441 
H  3.3624000000000005  0.6411000000000016  1.7953999999999999 
H  2.2592  0.23480000000000167  2.8568 
C  0.6631999999999999  4.633900000000001  0.20829999999999949 
H  1.3383000000000003  4.9144000000000005  -0.4276 
H  0.11970000000000003  5.3957000000000015  0.4615999999999998 
H  0.09839999999999993  3.9543  -0.19500000000000028 
C  1.9707  0.6073000000000004  -2.8891 
C  1.201  0.7645  -4.0478000000000005 
C  1.6766  0.3340000000000014  -5.2638 
H  1.1487000000000003  0.4356000000000009  -6.0337 
C  2.9101  -0.24160000000000004  -5.3609 
H  3.2354  -0.5196999999999994  -6.1986 
C  3.6670000000000003  -0.41329999999999956  -4.2436 
H  4.5042  -0.8340999999999994  -4.3186 
C  3.2310000000000003  0.02200000000000024  -2.9701 
C  4.0938  -0.2342999999999993  -1.7673 
H  4.6818  0.5226000000000006  -1.6231 
H  4.6266  -1.032399999999999  -1.9175 
H  3.5315  -0.36249999999999893  -0.9871000000000003 
C  -0.16980000000000006  1.3957000000000015  -3.9683 
H  -0.7459  0.8491  -3.4103000000000003 
H  -0.5476000000000001  1.4585000000000008  -4.8589 
H  -0.0958  2.283200000000001  -3.584 
