60
unq_CSD-HEKVOM-02-a
N  0.45619999999999994  1.8706  0.4588000000000001 
N  -1.6333  0.8203  -0.8980999999999999 
C  2.5277  2.0909999999999997  1.8317999999999999 
C  -0.4173  2.7007999999999996  -0.21839999999999993 
C  -0.0027999999999999137  4.0173000000000005  -0.09299999999999997 
H  -0.4152  4.7681000000000004  -0.4554999999999998 
C  1.1493000000000002  3.9928000000000003  0.6823000000000001 
H  1.6573000000000002  4.7279  0.9380000000000002 
C  1.4037000000000002  2.6582000000000003  1.0070000000000001 
C  -1.517  2.1053  -0.8879999999999999 
H  -2.1494  2.6368000000000005  -1.3161 
C  3.5574  1.3558999999999997  0.944 
H  3.1183  0.6306000000000003  0.4729000000000001 
H  3.9126  1.9716  0.2839999999999998 
C  4.699999999999999  0.7978000000000001  1.7862000000000005 
H  5.336399999999999  0.3348  1.2021000000000002 
C  5.411  1.9308  2.5048999999999997 
H  5.776300000000001  2.5536999999999996  1.8572000000000002 
H  6.144300000000001  1.5768  3.0328000000000004 
C  4.4132  2.653  3.4177000000000004 
H  4.866  3.3901  3.8783999999999996 
C  3.2704  3.206  2.5772999999999997 
H  3.6236  3.8413  1.9346999999999999 
H  2.6481  3.6774  3.1527 
C  2.0021  1.0911000000000004  2.8904 
H  1.3693  1.5393000000000003  3.4732999999999996 
H  1.5373999999999999  0.3641000000000001  2.446 
C  3.15  0.5251999999999999  3.7251999999999996 
H  2.7971999999999997  -0.11249999999999982  4.3801000000000005 
C  3.8581  1.6673000000000004  4.4534 
H  4.581899999999999  1.3152000000000004  4.9945 
H  3.2331  2.1221  5.0395 
C  4.1541  -0.18279999999999985  2.8103000000000002 
H  4.8834  -0.5408  3.3404000000000003 
H  3.7189  -0.9207000000000001  2.3562 
C  -2.767  0.1621999999999999  -1.584 
C  -4.1028  0.4697  -0.9140999999999999 
H  -4.2852  1.4205999999999999  -0.9687999999999999 
H  -4.0633  0.2219000000000002  0.02289999999999992 
C  -5.2207  -0.3132999999999999  -1.6104 
H  -6.079000000000001  -0.1137999999999999  -1.1822 
C  -5.2745  0.08599999999999985  -3.0756 
H  -5.995699999999999  -0.3893  -3.5167 
H  -5.4494  1.0370000000000004  -3.1484 
C  -4.9275  -1.8145  -1.505 
H  -4.8796  -2.0758  -0.5733000000000001 
H  -5.642799999999999  -2.3182  -1.926 
C  -2.8411999999999997  0.5472000000000001  -3.0569 
H  -1.994  0.35470000000000024  -3.4879 
H  -3.0125  1.4987  -3.1377 
C  -2.5046999999999997  -1.3468  -1.4978 
H  -1.6562  -1.5534  -1.9212 
H  -2.4503  -1.6147  -0.5672999999999999 
C  -3.6216999999999997  -2.1181  -2.1888 
H  -3.4396  -3.0783  -2.121 
C  -3.9655  -0.24219999999999997  -3.7485999999999997 
H  -4.011  0.014699999999999935  -4.6933 
C  -3.6895  -1.7291999999999998  -3.6411 
H  -4.3948  -2.2275  -4.0828 
H  -2.8491  -1.9402  -4.0774 
