78
unq_CSD-QEGLOH-02-a
N  2.005000000000001  1.4526000000000003  0.012699999999998823 
N  -0.005999999999998451  2.3651  -0.4339000000000013 
C  1.3204000000000011  2.5055999999999994  -0.41740000000000066 
C  1.962200000000001  3.8058999999999994  -0.8552 
C  1.9967000000000006  4.1419000000000015  -2.226300000000002 
C  2.546000000000001  5.366300000000001  -2.6178000000000026 
H  2.6036  5.580599999999999  -3.5421000000000014 
C  3.0037000000000003  6.2674  -1.6812000000000005 
H  3.3580000000000005  7.1053000000000015  -1.9578000000000024 
C  2.9473000000000003  5.949299999999999  -0.34140000000000015 
H  3.251100000000001  6.581899999999999  0.2984999999999971 
C  2.4534000000000002  4.718099999999998  0.10259999999999891 
C  2.5382000000000016  4.423499999999999  1.5664999999999978 
C  3.6889000000000003  4.8115000000000006  2.2536999999999985 
H  4.377700000000001  5.268199999999998  1.7845999999999975 
C  3.8485000000000014  4.546100000000001  3.6017999999999972 
H  4.650600000000001  4.8177  4.033199999999997 
C  2.8734  3.895999999999999  4.3431 
C  1.7326000000000015  3.5086999999999993  3.658899999999999 
H  1.046800000000001  3.0528999999999993  4.131399999999999 
C  1.5615000000000006  3.7650000000000006  2.3027999999999977 
H  0.7623000000000015  3.4863999999999997  1.8724999999999987 
C  3.0847000000000016  3.5831  5.8263 
C  3.7253000000000007  4.767200000000001  6.5427 
H  4.607000000000001  4.947000000000001  6.1525 
H  3.8255  4.556900000000001  7.4939 
H  3.1554  5.557699999999999  6.441999999999997 
C  1.7568000000000001  3.261099999999999  6.526199999999999 
H  1.1302000000000003  4.002799999999999  6.392799999999998 
H  1.9162  3.1372999999999998  7.486099999999997 
H  1.3779000000000003  2.4396000000000004  6.147299999999998 
C  4.004000000000001  2.363199999999999  5.937999999999999 
H  3.5772000000000013  1.5914000000000001  5.508899999999997 
H  4.1669  2.1624999999999996  6.883899999999997 
H  4.8565000000000005  2.5542  5.493399999999998 
C  1.422600000000001  3.2562999999999995  -3.269700000000002 
C  1.7794000000000008  1.9190000000000005  -3.413100000000002 
H  2.4316000000000013  1.548399999999999  -2.8313000000000024 
C  1.2078000000000007  1.1187000000000005  -4.3774000000000015 
H  1.472900000000001  0.20819999999999972  -4.436300000000001 
C  0.2519000000000009  1.6054999999999993  -5.2722000000000016 
C  -0.08829999999999849  2.9503000000000004  -5.127700000000003 
H  -0.7324999999999999  3.324399999999999  -5.715700000000002 
C  0.4734000000000016  3.7547999999999995  -4.166200000000002 
H  0.21160000000000068  4.665799999999999  -4.110700000000001 
C  -0.43189999999999884  0.7284000000000006  -6.305500000000002 
C  -0.6812999999999985  1.4785000000000004  -7.6148000000000025 
H  -1.3016999999999985  2.2194000000000003  -7.452500000000002 
H  -1.0679999999999996  0.8653999999999993  -8.274300000000002 
H  0.16660000000000075  1.8316  -7.956400000000002 
C  0.42410000000000103  -0.4961000000000002  -6.6495000000000015 
H  1.3036000000000012  -0.20120000000000005  -6.9666000000000015 
H  -0.01819999999999844  -1.0181000000000004  -7.351700000000001 
H  0.5357000000000003  -1.0526999999999997  -5.850100000000001 
C  -1.7680999999999996  0.24549999999999983  -5.7291000000000025 
H  -1.6027999999999993  -0.2779000000000007  -4.917000000000002 
H  -2.225999999999999  -0.3125  -6.390200000000002 
H  -2.3271999999999995  1.0199999999999996  -5.511500000000002 
C  3.469900000000001  1.3940000000000001  0.0020999999999986585 
H  3.8260000000000005  2.196999999999999  -0.4768000000000008 
C  4.043000000000001  1.3609999999999989  1.4192 
H  3.732800000000001  2.1478  1.9163999999999994 
H  5.0236  1.3689  1.376299999999997 
H  3.7426000000000013  0.547699999999999  1.8750999999999998 
C  3.9215  0.14329999999999998  -0.725200000000001 
H  3.5648  -0.6471999999999998  -0.2701000000000029 
H  4.901000000000002  0.10360000000000014  -0.7301000000000002 
H  3.591800000000001  0.16499999999999915  -1.6476000000000006 
C  -0.942499999999999  3.3918  -0.9017000000000017 
H  -0.4413  4.057899999999998  -1.453800000000001 
C  -1.5688999999999993  4.108299999999998  0.283299999999997 
H  -1.9334999999999996  3.4475  0.9084999999999965 
H  -2.291899999999999  4.690800000000001  -0.03230000000000288 
H  -0.8892999999999986  4.6472999999999995  0.7378999999999998 
C  -1.9808999999999992  2.7104999999999997  -1.776600000000002 
H  -1.5413999999999994  2.3201  -2.5600000000000023 
H  -2.644499999999999  3.3697  -2.068900000000003 
H  -2.4269999999999996  2.0032999999999994  -1.2651000000000003 
