74
unq_CSD-ISUKAK-02-a
N  2.0492  0.12199999999999989  0.3634000000000004 
N  -0.08810000000000029  1.9717999999999996  0.6937000000000002 
C  1.6985999999999999  0.3658000000000001  -2.6603999999999997 
N  -0.6617000000000002  2.1591  -2.3159 
C  1.2033999999999998  0.4788999999999999  -3.9707999999999997 
C  1.9204999999999997  -0.5331000000000001  -4.7712 
C  1.8875000000000002  -0.8186  -6.1312999999999995 
H  1.3382999999999998  -0.31530000000000014  -6.720599999999999 
C  2.6818999999999997  -1.8641  -6.6128 
H  2.6688  -2.0731  -7.5393 
C  2.7553  -1.2727  -3.9015999999999997 
C  3.5346  -2.3171  -4.3854 
H  4.0846  -2.8254  -3.8000999999999996 
C  3.4905  -2.6026  -5.755 
H  4.0198  -3.3104  -6.103999999999999 
C  2.6044  -0.7086000000000001  -2.5479 
C  3.2600999999999996  -1.1470000000000002  -1.3974999999999997 
H  3.896  -1.8434000000000001  -1.5140999999999998 
C  3.0855999999999995  -0.673  -0.08589999999999964 
C  4.0607999999999995  -0.8307000000000002  0.9701 
C  5.3488999999999995  -1.5791  0.8366000000000002 
H  5.9341  -1.1124  0.20389999999999997 
H  5.1674999999999995  -2.4838  0.5071000000000003 
H  5.788099999999999  -1.6309  1.7107999999999999 
C  3.6258999999999997  -0.07710000000000017  2.0377 
C  4.312  0.18759999999999977  3.3436000000000003 
H  4.9258999999999995  -0.5621  3.5427 
H  3.6331999999999995  0.22219999999999995  4.0633 
C  5.1038  1.4922999999999997  3.3438 
H  5.5305  1.6146999999999996  4.2181 
H  5.791799999999999  1.4571999999999998  2.6471999999999998 
H  4.498  2.2414  3.1679000000000004 
C  2.3769  0.5166999999999997  1.6397000000000004 
C  1.6059999999999999  1.4099999999999997  2.3914999999999997 
H  1.8567  1.5363000000000002  3.2996 
C  0.5053999999999998  2.1325  1.9356999999999998 
C  -0.1532  3.1878999999999995  2.6661 
C  0.24509999999999987  3.6649999999999996  4.032 
H  0.36099999999999977  2.8806  4.623600000000001 
H  -0.4877  4.2166  4.4049000000000005 
C  1.5337999999999998  4.4846  4.0399 
H  1.7373000000000003  4.7646999999999995  4.9562 
H  2.2699  3.9381999999999997  3.6936 
H  1.4207  5.276900000000001  3.4736000000000002 
C  -1.1379000000000001  3.6771999999999996  1.8491999999999997 
C  -2.0803000000000003  4.8149  2.1207000000000003 
H  -2.1652  5.3649000000000004  1.3026999999999997 
H  -1.6983000000000001  5.3878  2.8327 
C  -3.4678000000000004  4.3447  2.5511 
H  -4.0404  5.1235  2.715 
H  -3.8609  3.794  1.8426 
H  -3.3937  3.8157  3.3725000000000005 
C  -1.0850000000000002  2.9244999999999997  0.6134000000000004 
C  -1.8764  3.2484999999999995  -0.4988999999999999 
H  -2.6433  3.7772  -0.3115999999999999 
C  -1.7005000000000001  2.9061  -1.8357999999999999 
C  -2.509  3.2692  -2.9684999999999997 
C  -3.7493  4.1051  -2.8893999999999997 
H  -4.2285  3.8936999999999995  -2.0488 
H  -4.3449  3.871  -3.6452999999999998 
C  -3.4561  5.603300000000001  -2.9316 
H  -4.2979  6.1023  -2.8765 
H  -2.8831  5.845700000000001  -2.1742 
H  -2.9995000000000003  5.823  -3.7706999999999997 
C  -1.9209  2.7171999999999996  -4.0899 
C  -2.4164000000000003  2.7554000000000003  -5.5023 
H  -3.2257000000000002  3.3053000000000003  -5.5501000000000005 
H  -2.6216  1.8447999999999998  -5.8008 
H  -1.725  3.1403000000000003  -6.0809999999999995 
C  -0.7363000000000002  2.0140999999999996  -3.6799999999999997 
C  0.14869999999999983  1.2707000000000002  -4.452 
H  0.028699999999999726  1.3012000000000001  -5.394 
H  1.5864000000000003  0.9556  -1.9707999999999999 
H  -0.11860000000000026  1.8901999999999997  -1.8441999999999998 
