60
unq_CSD-IXAXAH-02-a
N  1.6438000000000006  1.3919999999999995  -0.4317999999999991 
N  1.099400000000001  -1.1151999999999997  -1.5408999999999988 
H  1.1972000000000005  -1.971  -1.4167999999999985 
C  2.407  2.142199999999999  0.5689000000000011 
C  3.6801000000000013  1.6018000000000008  0.9314 
C  4.4641  2.296800000000001  1.8356000000000012 
H  5.317300000000001  1.9700999999999986  2.0602 
C  4.0097000000000005  3.4617000000000004  2.4109 
H  4.547400000000001  3.940200000000001  3.0157000000000007 
C  2.733600000000001  3.9162  2.0760000000000023 
H  2.4026000000000014  4.688300000000002  2.4956000000000014 
C  1.9478000000000009  3.277100000000001  1.1580000000000013 
C  0.5925000000000011  3.8465999999999987  0.8644000000000016 
H  0.12820000000000142  3.2295000000000016  0.2439 
C  -0.2553000000000001  3.999600000000001  2.089800000000002 
H  -0.3349999999999991  3.1419999999999995  2.537000000000001 
H  -1.1370999999999984  4.314599999999999  1.8356000000000012 
H  0.15590000000000082  4.639499999999998  2.6906000000000017 
C  0.7009000000000007  5.236899999999999  0.16900000000000048 
H  1.2449000000000012  5.157499999999999  -0.6288 
H  1.1110000000000007  5.870899999999999  0.7778000000000009 
H  -0.18459999999999965  5.549299999999999  -0.07129999999999903 
C  4.2521  0.30219999999999914  0.31290000000000084 
H  3.5074000000000005  -0.16720000000000113  -0.1402000000000001 
C  5.3237000000000005  0.6326  -0.7646999999999995 
H  5.663900000000002  -0.19239999999999924  -1.1468999999999987 
H  6.052400000000002  1.1243000000000016  -0.35499999999999865 
H  4.923100000000002  1.1719000000000008  -1.4640999999999984 
C  4.813600000000001  -0.6315000000000008  1.347100000000001 
H  4.131400000000001  -0.8336000000000006  2.0051000000000005 
H  5.5695000000000014  -0.21059999999999945  1.7843999999999998 
H  5.104900000000001  -1.4510000000000005  0.9196000000000009 
C  1.9880000000000013  1.6859000000000002  -1.7241 
C  1.8933  0.7654999999999994  -2.7543999999999986 
H  2.024800000000001  1.0944000000000003  -3.6250999999999998 
C  1.6216000000000008  -0.6050000000000004  -2.6381999999999994 
C  2.4731000000000005  3.0365  -2.1357999999999997 
C  3.615500000000001  3.6799  -1.7260999999999989 
H  4.1622  3.284600000000001  -1.0701 
C  3.9792000000000005  4.927399999999999  -2.2795999999999985 
H  4.7606  5.355599999999999  -1.9802 
C  3.208  5.525600000000001  -3.248899999999999 
H  3.4795000000000016  6.3414  -3.6309999999999985 
C  2.0322000000000013  4.9253  -3.6605999999999987 
H  1.4931999999999999  5.3428  -4.306699999999999 
C  1.6415000000000006  3.6805999999999983  -3.1069999999999993 
H  0.8371000000000013  3.277100000000001  -3.3789 
C  2.0383000000000013  -1.5212000000000003  -3.794599999999999 
C  3.5664000000000016  -1.5363000000000007  -3.8713999999999995 
H  3.8925  -0.6318000000000001  -4.0013999999999985 
H  3.8476  -2.0914  -4.616 
H  3.9288000000000007  -1.8953000000000007  -3.0459999999999994 
C  1.4487000000000005  -0.9892000000000003  -5.0809999999999995 
H  1.7436000000000007  -0.07610000000000028  -5.2188 
H  0.48080000000000034  -1.0107  -5.0257999999999985 
H  1.743500000000001  -1.5395000000000003  -5.823599999999999 
C  1.5709  -2.9680999999999997  -3.5877 
H  0.6029  -2.9909999999999997  -3.532499999999999 
H  1.9499000000000013  -3.3154000000000003  -2.7642999999999986 
H  1.8643999999999998  -3.5129  -4.334299999999999 
