47
unq_CSD-IYOHEJ-02-a
N  1.0598  -1.5482000000000005  -1.5415 
N  -1.6574  -0.6594000000000007  -1.2406999999999995 
C  2.3144  -1.1543  -1.9577999999999998 
C  2.8734  -1.5505000000000004  -3.1213999999999995 
C  2.1318  -2.3495000000000004  -4.0104999999999995 
C  2.6024  -2.6870000000000003  -5.3072 
C  1.8438  -3.4144  -6.1579 
C  0.5609  -3.8283000000000005  -5.7665 
C  0.0706  -3.535  -4.5238 
C  0.8424  -2.7833  -3.6003999999999996 
C  0.3727  -2.4030000000000005  -2.2992999999999997 
C  -0.9261  -2.894  -1.7848999999999995 
C  -1.1369  -4.313000000000001  -1.7097999999999995 
C  -0.0838  -5.262300000000001  -1.8593999999999995 
C  -0.3181  -6.607  -1.8001999999999998 
C  -1.6282  -7.096500000000001  -1.5896999999999997 
C  -2.6588  -6.227600000000001  -1.4089999999999998 
C  -2.4499  -4.8163  -1.4546000000000001 
C  -3.4871  -3.8828000000000005  -1.2765999999999993 
C  -3.2518  -2.5459  -1.2383999999999995 
C  -1.9464  -2.0038000000000005  -1.4190999999999994 
C  -2.769  0.2803999999999993  -1.3255 
C  -3.4052  0.4581999999999997  -2.6933999999999996 
C  -2.9431  -0.19350000000000023  -3.8210999999999995 
C  -3.5398  0.013799999999999812  -5.0572 
C  -4.6043  0.9001999999999999  -5.174799999999999 
C  -5.0739  1.5621  -4.0464 
C  -4.481  1.3376000000000001  -2.8238 
H  2.7577  -0.5289000000000001  -1.3243999999999998 
H  3.7082  -1.2890000000000006  -3.2893 
H  3.4918  -2.4538  -5.563 
H  2.2871  -3.7121000000000004  -7.033799999999999 
H  0.0941  -4.215  -6.3132 
H  -0.7812  -3.7098000000000004  -4.2889 
H  0.8094  -4.9026000000000005  -1.9945999999999997 
H  0.4047  -7.2462  -1.9099999999999997 
H  -1.7788  -8.0975  -1.5485999999999995 
H  -3.5482  -6.5071  -1.2557999999999998 
H  -4.3859  -4.1822  -1.1734 
H  -3.9624  -1.9837000000000002  -1.0865 
H  -3.52  0.039499999999999424  -0.6747999999999994 
H  -2.4753  1.0779999999999994  -1.0774 
H  -2.2024  -0.7955000000000005  -3.7375999999999996 
H  -3.1906  -0.5616000000000003  -5.8557 
H  -5.0165  1.0663  -6.0020999999999995 
H  -5.8165  2.1632  -4.076099999999999 
H  -4.8188  1.7585999999999995  -2.0082999999999998 
