50
unq_CSD-IYOHOT-02-a
N  -0.8179999999999996  1.4522000000000013  1.7742000000000004 
N  1.8365999999999998  0.9097000000000008  0.7770999999999999 
C  -1.8692000000000002  0.9455999999999989  2.4972000000000003 
C  -2.2288999999999994  1.410700000000002  3.7217000000000002 
C  -1.4295999999999998  2.4025999999999996  4.3474 
C  -1.6883999999999997  2.863299999999999  5.674200000000001 
C  -0.8094000000000001  3.7220000000000013  6.2806 
C  0.3407  4.157600000000002  5.6272 
C  0.5938000000000008  3.7696000000000005  4.309000000000001 
C  -0.31479999999999997  2.9002000000000017  3.6438000000000006 
C  -0.11149999999999949  2.4589  2.2802000000000007 
C  0.9540999999999995  3.078400000000002  1.4509000000000007 
C  0.9758000000000004  4.523800000000001  1.314 
C  -0.09769999999999968  5.3568999999999996  1.6985000000000001 
C  -0.034600000000000186  6.7209  1.5491000000000001 
C  1.1079999999999997  7.333500000000001  1.0051000000000005 
C  2.1407999999999996  6.554200000000002  0.5904000000000007 
C  2.1118999999999994  5.134599999999999  0.7065000000000001 
C  3.1568999999999994  4.315100000000001  0.24450000000000038 
C  3.070900000000001  2.9527  0.31430000000000025 
C  1.9495999999999993  2.304000000000002  0.8775000000000004 
C  3.008  0.1645000000000003  1.1018 
C  3.585400000000001  0.28669999999999973  2.3588000000000005 
C  4.7063999999999995  -0.4992999999999981  2.7312000000000003 
C  5.2192  -0.470600000000001  4.063700000000001 
C  6.2656  -1.2870999999999988  4.4114 
C  6.892399999999999  -2.1144999999999996  3.4534000000000002 
C  6.419200000000001  -2.1662999999999997  2.1637000000000004 
C  5.2974000000000006  -1.3672000000000004  1.7711000000000006 
C  4.7085  -1.4504999999999981  0.4804000000000004 
C  3.6190000000000007  -0.7151999999999994  0.16860000000000053 
H  -2.2386999999999997  0.10709999999999908  2.1117 
H  -3.0167  1.152000000000001  4.1707 
H  -2.4962999999999997  2.611799999999999  6.0908999999999995 
H  -1.0651000000000002  4.033100000000001  7.1989 
H  1.0233999999999996  4.683600000000002  6.0786 
H  1.4508  4.051100000000002  3.8911 
H  -0.8673000000000002  4.9193  1.9811000000000005 
H  -0.8022999999999998  7.2165  1.7179000000000002 
H  1.1324999999999994  8.294599999999999  0.8833000000000002 
H  2.8690000000000007  6.886099999999999  0.21799999999999997 
H  3.9103000000000003  4.668300000000002  -0.10029999999999983 
H  3.6161000000000003  2.4913999999999987  0.07110000000000039 
H  3.2212000000000005  0.9880999999999993  3.0218000000000007 
H  4.7953  0.23770000000000024  4.6767 
H  6.5866999999999996  -1.3039999999999985  5.344000000000001 
H  7.7069  -2.6357  3.7196999999999996 
H  6.777  -2.8482999999999983  1.5138000000000007 
H  5.109700000000001  -2.0875999999999983  0.03640000000000043 
H  3.113600000000001  -0.789200000000001  -0.6777999999999995 
