34
unq_CSD-IZIXIZ-02-a
N  -1.2852999999999999  1.5387000000000004  -0.5366999999999997 
N  1.1611000000000002  0.7671999999999999  -1.2923999999999998 
C  -0.6023999999999998  2.3578  -1.5442999999999998 
C  -1.1667  3.4596999999999998  -2.1180999999999996 
H  -2.0299  3.747300000000001  -1.8417 
C  -0.4857999999999998  4.1654  -3.1064999999999996 
H  -0.8898999999999999  4.9175  -3.5245999999999995 
C  0.7762000000000002  3.765600000000001  -3.4703 
H  1.2531999999999996  4.2507  -4.1342 
C  1.3532000000000002  2.6711  -2.8842999999999996 
H  2.2272999999999996  2.4127  -3.1519999999999997 
C  0.6889000000000003  1.9117000000000006  -1.8906999999999998 
C  2.4623  0.32840000000000025  -1.6824999999999999 
C  3.6273999999999997  0.9561000000000002  -1.2319999999999998 
C  4.8533  0.49659999999999993  -1.6955999999999998 
H  5.6499  0.9061000000000003  -1.3824999999999998 
C  4.940600000000001  -0.5394999999999994  -2.5974 
H  5.787  -0.8161999999999994  -2.9244999999999997 
C  3.8087  -1.1635  -3.0164 
H  3.8724  -1.8923999999999999  -3.6224999999999996 
C  2.5759999999999996  -0.7527999999999997  -2.5755 
H  1.7944000000000004  -1.2024999999999997  -2.8747 
C  -2.5023  0.9268000000000001  -1.1488999999999998 
H  -3.093  1.6362000000000005  -1.4777999999999998 
H  -2.9752  0.39420000000000055  -0.4753999999999998 
H  -2.2367999999999997  0.35029999999999983  -1.8949999999999998 
C  -1.71  2.3481000000000005  0.6214 
H  -0.9380000000000002  2.8294999999999995  0.9843999999999999 
H  -2.0827999999999998  1.7606000000000002  1.3107000000000002 
H  -2.3907  2.9916  0.33630000000000004 
C  3.5814000000000004  2.1165000000000003  -0.2890999999999999 
H  4.4353  2.1859  0.18500000000000005 
H  2.8574  1.9836  0.3581000000000003 
H  3.4203  2.941600000000001  -0.7937999999999998 
