83
unq_CSD-IZOTID-02-a
N  -1.4886999999999997  -1.3224  0.2884000000000002 
N  -1.1076999999999995  -0.3192000000000004  -1.6559 
N  -2.8861999999999997  -1.9204000000000008  -1.5586000000000002 
C  -1.8756999999999997  -1.2057000000000002  -0.9989999999999997 
C  -1.5798999999999999  -2.5316  1.0374999999999996 
C  -4.021  -2.4556000000000004  -0.7849000000000004 
H  -3.9038999999999997  -2.1548000000000007  0.14039999999999964 
C  -2.3633999999999995  -2.5365  2.2038 
C  -2.9617999999999998  -2.0825000000000005  -3.0139 
H  -3.4604  -1.3545000000000007  -3.3916 
H  -3.3987999999999996  -2.9116  -3.2214 
H  -2.0746999999999995  -2.0877  -3.3815999999999997 
C  -0.8317999999999994  -3.6572000000000005  0.6555999999999997 
C  -1.4861999999999997  0.43539999999999957  -2.7943 
C  -4.079  -3.9766000000000004  -0.7529000000000003 
H  -4.1711  -4.3148  -1.6576 
H  -3.2512  -4.3232  -0.38569999999999993 
C  -3.1186999999999996  -1.3107000000000006  2.6515000000000004 
H  -3.2841999999999993  -0.7651000000000003  1.8543000000000003 
C  -5.3481  -1.8850000000000007  -1.2732 
H  -5.4803  -2.1288  -2.2022 
H  -5.320799999999999  -0.9169  -1.2181000000000002 
C  -6.519  -2.4045000000000005  -0.4433999999999996 
H  -6.4395999999999995  -2.0716  0.4645999999999999 
H  -7.3484  -2.0661000000000005  -0.8140999999999998 
C  -2.4021999999999997  -3.7245  2.9490999999999996 
H  -2.9271999999999996  -3.7605000000000004  3.714600000000001 
C  -6.562799999999999  -3.9049000000000005  -0.41830000000000034 
H  -6.735799999999999  -4.240500000000001  -1.3113000000000001 
H  -7.2859  -4.1989  0.15939999999999976 
C  -0.9035999999999995  -4.7956  1.4720000000000004 
H  -0.40229999999999944  -5.546900000000001  1.2504 
C  -5.2492  -4.4626  0.09020000000000028 
H  -5.2809  -5.4317  0.0674999999999999 
H  -5.117699999999999  -4.1882  1.0109000000000004 
C  -2.5604999999999998  1.3362999999999996  -2.7336 
C  -1.6937999999999995  -4.8238  2.5827 
H  -1.7475999999999998  -5.6000000000000005  3.0927000000000007 
C  -0.6880999999999995  0.33949999999999925  -3.9499 
C  -3.3409999999999997  1.5449000000000002  -1.4689 
H  -3.3652999999999995  0.6799  -1.0090000000000003 
C  0.056700000000000195  -3.6729000000000003  -0.5823 
H  -0.04249999999999954  -2.8018  -1.021 
C  0.5147000000000004  -0.5518000000000001  -4.0032 
H  0.6747000000000005  -0.9010000000000007  -3.101 
C  -4.4837  -1.6299000000000001  3.2720000000000002 
H  -4.9883999999999995  -2.1804000000000006  2.6685 
H  -4.959899999999999  -0.8136000000000001  3.4357000000000006 
H  -4.3561  -2.0984000000000007  4.1007 
C  -1.0572999999999997  1.1332000000000004  -5.0504999999999995 
H  -0.5576999999999996  1.0809999999999995  -5.8324 
C  -2.2969999999999997  -0.47750000000000004  3.5982000000000003 
H  -2.1630999999999996  -0.9614000000000003  4.416499999999999 
H  -2.7564999999999995  0.3440999999999992  3.7833000000000006 
H  -1.4454999999999996  -0.2850999999999999  3.197800000000001 
C  -0.33949999999999925  -4.7304  -1.596 
H  -0.16829999999999945  -5.6027000000000005  -1.2328999999999999 
H  0.1722999999999999  -4.6129  -2.3998 
H  -1.2746999999999997  -4.6466  -1.7978999999999998 
C  -2.8520999999999996  2.0755  -3.8711 
H  -3.5740999999999996  2.6608  -3.8554 
C  1.7750000000000004  0.1548999999999996  -4.465 
H  1.7702  0.22579999999999956  -5.4227 
H  2.5448000000000004  -0.3456999999999999  -4.1853 
H  1.8085000000000004  1.0343  -4.0801 
C  -4.818099999999999  1.9650999999999996  -1.7064 
H  -4.8605  2.9118999999999993  -1.8588999999999998 
H  -5.3419  1.7416  -0.9336000000000002 
H  -5.1633  1.5014000000000003  -2.4724 
C  -2.6392999999999995  2.504199999999999  -0.5454999999999997 
H  -1.7677999999999998  2.1632999999999996  -0.33110000000000017 
H  -3.1508999999999996  2.603999999999999  0.2607999999999997 
H  -2.5519  3.3575999999999997  -0.9764999999999997 
C  -2.1188  1.9672  -5.0036 
H  -2.3467999999999996  2.471399999999999  -5.7512 
C  1.5417000000000005  -3.8476  -0.2576999999999998 
H  1.8391000000000002  -3.1095000000000006  0.28049999999999997 
H  2.0468  -3.8725000000000005  -1.0732 
H  1.6691000000000003  -4.6669  0.22449999999999992 
C  0.3833000000000002  -1.7063000000000006  -4.9267 
H  -0.4817999999999998  -2.1084000000000005  -4.8142 
H  1.0643000000000002  -2.3531000000000004  -4.729 
H  0.48050000000000015  -1.4042000000000003  -5.8319 
