56
unq_CSD-JAGLEM-02-a
N  0.8251999999999999  -1.7598000000000003  -0.7204000000000006 
N  0.4560000000000002  -1.4747000000000003  1.4343000000000004 
C  0.8753  -2.3420000000000005  0.4872999999999994 
C  0.6319999999999999  -2.5217  -1.9145000000000003 
C  -0.4542999999999999  -3.3615000000000004  -2.0598 
H  -1.0545  -3.4528  -1.3555000000000001 
C  -0.6718  -4.072100000000001  -3.2326000000000006 
C  0.24320000000000008  -3.9247000000000005  -4.2456000000000005 
H  0.1252000000000002  -4.4099  -5.0299000000000005 
C  1.3255000000000001  -3.0869  -4.1455 
C  1.5156000000000003  -2.3662  -2.9701000000000004 
H  2.2335000000000003  -1.7801999999999998  -2.894 
C  -1.8697  -4.9725  -3.3711 
H  -1.9392999999999998  -5.5344  -2.5963000000000003 
H  -1.7697999999999998  -5.5191  -4.1547 
H  -2.6633  -4.439  -3.4528000000000008 
C  2.3202999999999996  -2.9436  -5.2682 
H  2.0941  -3.5520000000000005  -5.9756 
H  3.2008  -3.1452  -4.9424 
H  2.3  -2.0438  -5.6005 
C  0.9235  -1.4850000000000003  2.7684999999999995 
C  0.1079000000000001  -1.0438999999999998  3.784799999999999 
H  -0.7292999999999998  -0.6927000000000003  3.58 
C  0.5116000000000003  -1.1105  5.105 
C  1.7432  -1.6536  5.3932 
H  2.0069999999999997  -1.7325  6.281499999999999 
C  2.599  -2.0816  4.396799999999999 
C  2.1893000000000002  -1.9564000000000004  3.0806000000000004 
H  2.7724  -2.1931000000000003  2.395299999999999 
C  -0.39049999999999985  -0.5956999999999999  6.203999999999999 
H  -0.23919999999999986  0.34529999999999994  6.3263 
H  -0.19589999999999996  -1.0591  7.021599999999999 
H  -1.3071  -0.7431000000000001  5.962 
C  3.9524  -2.667  4.7136 
H  4.6379  -2.0977000000000006  4.3558 
H  4.0236  -3.5395000000000003  4.3199000000000005 
H  4.0567  -2.7349000000000006  5.664899999999999 
C  1.1743  -4.4214  1.7889999999999997 
C  0.055400000000000116  -4.3749  2.5877999999999997 
H  -0.6448999999999998  -3.7988999999999997  2.3779000000000003 
C  -0.02169999999999983  -5.192500000000001  3.7079000000000004 
C  1.0277  -6.048500000000001  3.9651999999999994 
H  0.9803  -6.5951  4.715199999999999 
C  2.1247999999999996  -6.1313  3.1752000000000002 
C  2.2024  -5.2995  2.0664999999999996 
H  2.9467  -5.3356  1.5103999999999989 
C  3.247  -7.0963  3.466199999999999 
H  4.0584999999999996  -6.6068  3.6206999999999994 
H  3.3666  -7.6846000000000005  2.7166999999999994 
H  3.0313  -7.6123  4.2463999999999995 
C  -1.2260999999999997  -5.083500000000001  4.6149000000000004 
H  -1.0427  -4.4543  5.3177 
H  -1.4184999999999999  -5.9422  4.9977 
H  -1.9835999999999998  -4.7822  4.1075 
N  1.3088  -3.6044  0.6488999999999994 
H  1.7159000000000002  -3.9542  -0.02289999999999992 
