33
unq_CSD-FIFPIU-02-b
N  1.6418  0.4692999999999987  -1.1258999999999997 
N  1.0644  1.6671999999999993  0.6119000000000003 
C  1.8532000000000002  1.5998999999999999  -0.4699000000000009 
N  2.6742  2.6037999999999997  -0.9454000000000011 
C  2.2335000000000003  0.0235000000000003  -2.3827000000000007 
H  1.8970000000000002  -0.9092000000000002  -2.5150000000000006 
C  3.7176  -0.10449999999999982  -2.3041 
H  3.9588  -0.6164000000000005  -1.5035000000000007 
H  4.120100000000001  0.7873000000000001  -2.2545 
H  4.0484  -0.5689000000000011  -3.1007000000000007 
C  1.7522000000000002  0.779399999999999  -3.5609 
H  0.7728000000000002  0.8216000000000001  -3.5444000000000004 
H  2.0458999999999996  0.32819999999999894  -4.3809000000000005 
H  2.1192  1.6883  -3.538900000000001 
C  0.8794000000000004  2.9296999999999986  1.360199999999999 
H  1.6216  3.5496999999999996  1.1052 
C  0.9798  2.6763999999999992  2.8332999999999995 
H  1.8415  2.2555999999999994  3.0344999999999995 
H  0.2519999999999998  2.0814000000000004  3.1130999999999993 
H  0.9096000000000002  3.526  3.317 
C  -0.4283000000000001  3.5801  0.9604999999999997 
H  -0.4397000000000002  3.7211999999999996  -0.008300000000000196 
H  -0.5163000000000002  4.4428  1.4179999999999993 
H  -1.1741000000000001  2.997  1.2155000000000005 
C  3.7931999999999997  2.9627  -0.4189000000000007 
C  4.3628  2.3518999999999988  0.8750999999999998 
H  3.6398  1.9284  1.3835999999999995 
H  4.7742  3.0576999999999988  1.4166999999999987 
H  5.0396  1.6791  0.6477000000000004 
C  4.5892  4.0022  -1.0776000000000003 
H  4.1303  4.297699999999999  -1.8907000000000007 
H  5.4688  3.6407999999999987  -1.310500000000001 
H  4.6989  4.763399999999999  -0.4699000000000009 
