43
unq_CSD-RAQYIS-02-a
N  1.3058  1.3604  -0.7189 
N  -0.8717  0.0107  -1.8605 
H  1.7078  1.8832  -0.1363 
N  2.5966  2.4013  -2.3178 
N  0.9875  0.9421  -3.051 
C  1.6053  1.5298  -1.991 
C  2.894  2.714  -3.723 
H  3.2879  3.6213  -3.7811 
H  2.0532  2.7121  -4.2442 
C  3.8595  1.7099  -4.3234 
H  4.6591  1.6499  -3.7606 
H  4.1149  2.0004  -5.2245 
H  3.4282  0.8317  -4.373 
C  3.4324  3.0316  -1.302 
H  4.3243  3.2156  -1.6898 
H  3.5549  2.3993  -0.5508 
C  2.8492  4.3358  -0.7622 
H  2.7425  4.9749  -1.4975 
H  3.4537  4.7096  -0.0878 
H  1.976  4.1586  -0.3548 
C  -0.1686  0.3118  -2.9547 
C  -0.7151  -0.0736  -4.3021 
C  0.0684  -0.883  -5.1197 
H  0.9173  -1.1803  -4.8156 
C  -0.3822  -1.2597  -6.3762 
H  0.1499  -1.829  -6.918 
C  -1.6062  -0.8075  -6.8445 
H  -1.9113  -1.0602  -7.7079 
C  -2.379  0.0116  -6.0436 
H  -3.2147  0.3302  -6.3635 
C  -1.9452  0.3747  -4.776 
H  -2.4893  0.9305  -4.2311 
C  -2.1378  -0.6555  -1.9619 
C  -3.2962  0.0213  -1.5651 
H  -3.2424  0.9198  -1.2604 
C  -4.5258  -0.6226  -1.6166 
H  -5.314  -0.1588  -1.3612 
C  -4.6042  -1.9365  -2.0386 
H  -5.4452  -2.3771  -2.0651 
C  -3.4522  -2.6133  -2.4248 
H  -3.5091  -3.5138  -2.7205 
C  -2.2158  -1.9752  -2.3781 
H  -1.4282  -2.4419  -2.6309 
