64
unq_CSD-RERSEP-02-a
N  -1.7952000000000001  1.2972000000000001  0.7969999999999988 
N  -0.8686000000000003  -1.3899999999999988  1.6449999999999996 
C  -3.8013000000000003  0.1590000000000007  -2.3237000000000005 
H  -4.0097000000000005  0.7047000000000008  -3.085700000000001 
H  -4.3565000000000005  -0.6234999999999999  -2.328500000000001 
H  -2.8787000000000003  -0.1012000000000004  -2.3583000000000007 
C  -4.0548  0.9474999999999998  -1.058300000000001 
H  -3.8037  0.38310000000000066  -0.29680000000000106 
C  -5.5604  1.2344000000000008  -0.9587000000000003 
H  -5.7263  1.815199999999999  -0.21280000000000143 
H  -6.0349  0.40859999999999985  -0.8325000000000014 
H  -5.8597  1.6554000000000002  -1.7666000000000004 
C  -3.2012  2.2043000000000017  -1.0094000000000012 
C  -3.4541000000000004  3.2327999999999992  -1.9082000000000008 
H  -4.1104  3.1241000000000003  -2.5577000000000005 
C  -2.7567000000000004  4.399900000000001  -1.8499000000000008 
H  -2.9464  5.078200000000001  -2.457700000000001 
C  -1.7963  4.5892  -0.9286000000000012 
H  -1.3372000000000002  5.398100000000001  -0.9045000000000005 
C  -1.475  3.5919000000000008  -0.005399999999999849 
C  -2.1754000000000002  2.3757  -0.0693999999999999 
C  -0.8445000000000003  4.343300000000001  2.2996 
H  -1.2448000000000001  5.2065  2.1723 
H  -0.09529999999999994  4.4229  2.8949999999999996 
H  -1.4911  3.7432  2.677999999999999 
C  -0.3799000000000001  3.8104999999999993  0.9817 
H  0.005299999999999638  2.9273000000000007  1.1646 
C  0.7586999999999997  4.679  0.5190999999999999 
H  0.9697  4.468500000000001  -0.3938000000000006 
H  1.5278999999999998  4.518700000000001  1.0701999999999998 
H  0.5036999999999998  5.6015  0.5842999999999989 
C  -3.5932000000000004  2.1262999999999987  2.2996 
H  -3.5783000000000005  2.3038000000000007  3.243599999999999 
H  -4.4406  1.7431999999999999  2.0603999999999996 
H  -3.4636  2.9448999999999987  1.8175999999999988 
C  -2.4706  1.1417000000000002  1.9480999999999984 
C  -2.2396000000000003  0.13560000000000016  2.8762999999999987 
H  -2.6309  0.27090000000000103  3.7090999999999994 
C  -1.5100000000000002  -1.0510000000000002  2.753 
C  -1.5412000000000001  -1.9486999999999988  3.9800999999999984 
H  -2.0781  -2.722899999999999  3.796899999999999 
H  -1.9174000000000002  -1.466099999999999  4.719999999999999 
H  -0.6475000000000002  -2.222999999999999  4.1983 
C  -0.31730000000000036  -2.744399999999999  1.521799999999999 
H  -0.06940000000000035  -3.0618  2.4040999999999997 
H  0.48939999999999984  -2.7057  0.9850999999999992 
C  -1.2725000000000002  -3.7409  0.8958999999999993 
H  -1.5900000000000003  -3.3751999999999995  0.05569999999999986 
H  -0.7794000000000001  -4.551599999999999  0.6929999999999996 
C  -3.9925  -2.4542  0.6113 
H  -4.931  -2.2569  0.6501999999999999 
H  -3.7628000000000004  -2.743499999999999  -0.2751000000000001 
H  -3.4898000000000002  -1.6670999999999996  0.8313999999999986 
C  -3.6711  -3.5374  1.5855999999999995 
C  -4.469  -4.1599  2.4894999999999996 
H  -5.3716  -3.9841999999999995  2.629199999999999 
C  -3.7025  -5.1104  3.175799999999999 
H  -4.0069  -5.6759  3.8484 
C  -2.4376  -5.058499999999999  2.6887999999999987 
C  -1.2309  -5.857899999999999  3.048 
H  -1.4744000000000002  -6.5359  3.6830999999999996 
H  -0.5684000000000002  -5.280999999999999  3.4342999999999986 
H  -0.8747000000000003  -6.2721  2.258899999999999 
N  -2.4175  -4.0922  1.7047999999999988 
