40
unq_CSD-RIKYUI-02-a
N  -0.023600000000000065  -0.5244999999999997  1.839599999999999 
N  -1.3371  1.4707  0.6760000000000002 
C  0.9888999999999997  -1.2412  2.4994999999999994 
C  1.1145999999999998  -2.6346  2.3038999999999987 
C  -1.6216000000000002  1.3167  1.9771999999999998 
C  1.9628  -0.5993999999999997  3.3103999999999996 
C  -0.9938000000000002  0.13780000000000037  2.6899999999999995 
H  -0.5190999999999999  0.47989999999999977  3.4883999999999986 
C  2.9556999999999998  -1.3527  3.924299999999999 
H  3.5763000000000003  -0.9142999999999999  4.477499999999999 
C  -1.8964  2.4888000000000003  0.0020999999999986585 
H  -1.6877  2.5901000000000005  -0.9097000000000008 
C  2.1420999999999997  -3.3301  2.9306 
H  2.2110999999999996  -4.2562  2.787099999999999 
C  3.0696999999999997  -2.7164  3.7569 
C  -2.7587  3.3902  0.5769000000000002 
H  -3.1287000000000003  4.0959  0.07939999999999969 
C  -2.4956  2.1909  2.6197 
H  -2.6945  2.0751  3.530899999999999 
C  0.14290000000000003  -3.3667  1.4258999999999986 
H  0.28279999999999994  -4.3217  1.5142999999999986 
H  0.27780000000000005  -3.1028  0.5030000000000001 
H  -0.7631999999999999  -3.1471  1.6946999999999992 
C  -3.0649  3.2217000000000002  1.9154 
H  -3.6596  3.8124000000000002  2.341199999999999 
C  1.9732999999999996  0.8996000000000004  3.4644999999999992 
H  1.5059999999999998  1.1447000000000003  4.2768 
H  1.5337999999999998  1.3064999999999998  2.702 
H  2.8912  1.2127999999999997  3.512699999999999 
C  -2.1149  -0.8249999999999997  3.172599999999999 
H  -1.7007  -1.6166  3.5755 
H  -2.6389  -0.37639999999999985  3.8674 
C  4.1625  -3.5088  4.434899999999999 
H  4.6882  -2.9198  4.998299999999999 
H  4.7354  -3.9097999999999997  3.7619999999999987 
H  3.7662999999999998  -4.2068  4.9780999999999995 
C  -3.0521000000000003  -1.2736  2.063599999999999 
H  -3.5754  -0.5167999999999999  1.7574999999999985 
H  -3.6469  -1.9613  2.4019999999999992 
H  -2.5345  -1.6294  1.3257999999999992 
