32
unq_CSD-RIKZET-02-a
N  -1.7232000000000003  0.5248999999999997  0.6852 
N  -0.2439  1.6955  -1.1583999999999999 
C  0.5740999999999996  2.2054  -2.0965 
H  1.3823000000000008  1.7468000000000004  -2.2931999999999997 
C  0.29139999999999944  3.3616  -2.7836 
H  0.8846000000000007  3.6959  -3.4455 
C  -0.8861999999999997  4.021800000000001  -2.4787 
H  -1.1062000000000003  4.834199999999999  -2.9203 
C  -1.7303999999999995  3.5026  -1.5416 
H  -2.5495  3.9432  -1.3514 
C  -1.3994  2.33  -0.8608 
C  -2.2459  1.6848999999999998  0.1815 
C  -3.4132999999999996  2.2461  0.5432 
H  -3.9543  1.8319  1.2058 
H  -3.6959  3.0568999999999997  0.1377 
C  -2.4440999999999997  -0.15070000000000006  1.7119000000000002 
C  -3.3697999999999997  -1.1406999999999998  1.383 
C  -3.9799999999999995  -1.8578000000000001  2.4053000000000004 
H  -4.606199999999999  -2.5382  2.1896000000000004 
C  -3.691  -1.5974  3.7184 
H  -4.1068999999999996  -2.1064  4.4056 
C  -2.8031999999999995  -0.6019999999999999  4.0446 
H  -2.6154  -0.42379999999999995  4.9574 
C  -2.1771000000000003  0.14449999999999985  3.0576 
C  -3.7312000000000003  -1.4016000000000002  -0.0474 
H  -4.0234  -0.5651000000000002  -0.4673 
H  -4.4585  -2.0582000000000003  -0.08609999999999998 
H  -2.9509  -1.7515999999999998  -0.5249 
C  -1.2490999999999994  1.2796000000000003  3.4359 
H  -1.1319  1.2957  4.4078 
H  -1.6360000000000001  2.1304999999999996  3.1403 
H  -0.3788999999999998  1.1495999999999995  3.0029000000000003 
