29
unq_CSD-RIKZIX-02-a
N  -0.09880000000000067  -1.6837999999999997  -1.1949999999999998 
N  -1.6872000000000007  -0.6716999999999995  0.6436 
C  -1.2260000000000009  -2.374599999999999  -0.9751000000000001 
C  -2.1197  -1.8389000000000006  0.0771 
C  -1.4852000000000007  -3.5317999999999996  -1.7218 
H  -2.2843999999999998  -4.0231  -1.573 
C  -0.5972000000000008  -3.9486  -2.6548000000000003 
H  -0.7748000000000008  -4.7306  -3.1641000000000004 
C  0.561399999999999  -3.2424999999999997  -2.8663000000000003 
H  1.1988000000000003  -3.5275  -3.5102 
C  0.7720000000000002  -2.1096000000000004  -2.1184 
H  1.5667999999999989  -1.6098  -2.2628 
C  -3.2211  -2.5235000000000003  0.4194 
H  -3.7825000000000006  -2.2027  1.1164 
H  -3.440200000000001  -3.3284000000000002  -0.0349 
C  -2.457700000000001  -0.1517999999999997  1.6908 
C  -3.5991999999999997  0.47550000000000026  1.5418 
C  -4.303800000000001  1.0241000000000007  2.693 
H  -5.0901  1.5440000000000005  2.5776 
C  -3.8398000000000003  0.7934999999999999  3.8707 
H  -4.341100000000001  1.1029  4.6157 
C  -2.6138000000000012  0.09740000000000038  4.1302 
H  -2.2973  -0.027200000000000557  5.019500000000001 
C  -1.9364000000000008  -0.3680000000000003  3.0871999999999997 
H  -1.1214000000000013  -0.8363999999999994  3.2217 
C  -4.1004000000000005  0.7477  0.2271 
H  -4.956900000000001  1.2188999999999997  0.2944 
H  -4.2279  -0.09450000000000003  -0.256 
H  -3.4574  1.3077000000000005  -0.2584 
