59
unq_CSD-RILHUR-02-a
N  0.9434999999999993  2.0107999999999997  0.8899999999999997 
N  -1.1800000000000006  2.0608000000000004  0.19989999999999997 
C  -0.16570000000000018  2.7329999999999997  0.7298 
C  2.185699999999999  2.5572999999999997  1.3983999999999996 
H  2.1068999999999996  3.5532999999999992  1.4154999999999998 
N  0.6054999999999993  5.148700000000001  0.5443000000000002 
C  3.3241999999999994  2.1855  0.4719000000000002 
H  3.1555  2.5731  -0.42479999999999984 
H  3.3606999999999996  1.2008999999999999  0.3761000000000001 
C  4.6715  2.6921  0.9916 
H  4.6753  3.6811  0.9958999999999998 
H  5.3955  2.3837  0.391 
C  4.925699999999999  2.17  2.4123 
H  4.997199999999999  1.1833  2.3952 
H  5.782499999999999  2.5335  2.7488 
C  3.8131000000000004  2.5731  3.3388 
H  3.790799999999999  3.5599  3.4154 
H  3.9811999999999994  2.2009  4.2397 
C  2.4567999999999994  2.0709  2.8212 
H  2.4471999999999987  1.0819  2.8382000000000005 
H  1.737499999999999  2.3947000000000003  3.4196999999999997 
C  -2.5343000000000004  2.5932000000000004  0.028900000000000148 
H  -2.5984000000000003  3.463  0.5188000000000001 
C  -2.8306000000000004  2.8419  -1.4406999999999999 
H  -2.7024000000000004  2.0004  -1.9455 
H  -2.1904000000000003  3.5093000000000005  -1.7922 
C  -4.2556  3.3485000000000005  -1.6622 
H  -4.36  4.2405  -1.2448 
H  -4.426900000000001  3.4432  -2.6334999999999997 
C  -5.2655  2.3815  -1.0574 
H  -6.1779  2.7537000000000003  -1.1616999999999997 
H  -5.23  1.5225  -1.5493999999999999 
C  -4.996  2.1348000000000003  0.38670000000000027 
H  -5.6364  1.463  0.7296 
H  -5.133100000000001  2.9739999999999993  0.8936000000000002 
C  -3.5574000000000003  1.6303999999999998  0.6146000000000003 
H  -3.3948000000000005  1.5312999999999999  1.5858999999999996 
H  -3.4495000000000005  0.7404999999999999  0.1929000000000003 
C  -0.30930000000000035  4.2306  1.1279000000000003 
H  -1.2015000000000002  4.5004  0.7658 
C  -0.4508000000000001  4.3861  2.6357 
C  -1.5334000000000003  3.8351999999999995  3.2962 
H  -2.1483000000000008  3.293399999999999  2.8169000000000004 
C  -1.7273000000000005  4.068700000000001  4.6316 
H  -2.4687000000000006  3.6656000000000004  5.068300000000001 
C  -0.8871000000000002  4.8572999999999995  5.3451 
H  -1.0514000000000001  5.031300000000001  6.2631 
C  0.2129999999999992  5.4057  4.7147 
H  0.8165999999999993  5.954199999999999  5.202400000000001 
C  0.4356  5.159  3.3899 
H  1.2088999999999999  5.5203  2.9724000000000004 
C  -0.005700000000000038  6.5185  0.5954999999999999 
H  -0.1891000000000007  6.7604  1.5262000000000002 
H  -0.8427000000000007  6.5225  0.08640000000000025 
H  0.6166999999999998  7.1679  0.20570000000000022 
C  0.8549999999999995  4.8463  -0.8698999999999999 
H  1.2421999999999995  3.9476000000000004  -0.9487000000000001 
H  1.4804999999999993  5.5049  -1.2405 
H  0.011799999999999145  4.8815  -1.3661999999999999 
