43
unq_CSD-NEKFUF-02-a
N  -0.9002  -1.4665999999999997  -1.1316000000000002 
N  1.5153  -0.09850000000000048  -1.4928000000000003 
C  -0.1999  -2.5056000000000003  -1.6594000000000002 
C  1.1379  -2.4343000000000004  -1.9413000000000005 
H  1.6016  -3.2332  -2.0459000000000005 
C  1.8619  -1.2311000000000005  -2.0856000000000003 
C  -2.2333  -1.3224  -1.6530000000000005 
C  -2.3906  -0.9709000000000003  -2.9716000000000005 
H  -1.6336  -0.8775000000000004  -3.5043000000000006 
C  -3.641  -0.7484000000000002  -3.5383000000000004 
H  -3.7226  -0.5339  -4.4394 
C  -4.7316  -0.8536999999999999  -2.7544000000000004 
H  -5.5691  -0.6570999999999998  -3.1076000000000006 
C  -4.6311  -1.237  -1.4735000000000005 
H  -5.3999  -1.3443000000000005  -0.9616000000000002 
C  -3.3677  -1.4774000000000003  -0.8955000000000002 
H  -3.3027  -1.7415000000000003  -0.005700000000000038 
C  -0.8789  -3.7812  -2.0308 
C  -1.6312  -4.4755  -1.0901000000000005 
H  -1.759  -4.1131  -0.24190000000000023 
C  -2.1919  -5.702  -1.4055000000000004 
H  -2.6793  -6.1747  -0.7689000000000004 
C  -2.0228  -6.2125  -2.6618000000000004 
H  -2.3918  -7.0407  -2.8696 
C  -1.3201  -5.5312  -3.6233000000000004 
H  -1.2349  -5.8748000000000005  -4.482900000000001 
C  -0.744  -4.3236  -3.2871000000000006 
H  -0.2496  -3.8648000000000002  -3.9275 
C  3.0744  -1.3044000000000002  -2.9886000000000004 
H  2.8851  -0.8497000000000003  -3.8141000000000003 
H  3.2825  -2.2241999999999997  -3.1700000000000004 
H  3.8219  -0.8855000000000004  -2.5560000000000005 
C  2.2156  1.0848000000000004  -1.9628000000000005 
C  1.74  1.7819999999999991  -3.0358 
H  0.9298  1.5455999999999994  -3.4250000000000003 
C  2.4794  2.8625  -3.5459000000000005 
H  2.1801  3.3332000000000006  -4.2902000000000005 
C  3.6528  3.2061  -2.9282000000000004 
H  4.152  3.9151999999999996  -3.2644 
C  4.1011  2.5446999999999997  -1.8400000000000003 
H  4.8937  2.8107999999999995  -1.4301000000000004 
C  3.3902  1.4682000000000004  -1.3281000000000005 
H  3.6918  1.0153000000000008  -0.5743 
