44
unq_CSD-NONMEK-02-a
N  -1.6119000000000003  1.35  0.6892 
N  -0.009599999999998943  0.6868000000000003  2.0778000000000003 
C  -1.1099999999999994  1.3890000000000002  1.9045999999999998 
H  -1.5062999999999995  1.8776000000000006  2.5905 
C  -2.7474  2.089  0.30520000000000014 
C  -3.399  1.7407  -0.8662999999999998 
H  -3.0862  1.0209000000000001  -1.3662999999999998 
C  -4.5138  2.4403  -1.2957999999999998 
H  -4.8979  2.2245000000000004  -2.1148 
C  -5.026999999999999  3.4753000000000003  -0.5409999999999999 
H  -5.803999999999999  3.9118  -0.8053999999999999 
C  -4.385599999999999  3.8256  0.5920000000000001 
H  -4.7231  4.529999999999999  1.0985 
C  -3.2466999999999997  3.1613  1.0296000000000003 
H  -2.8188999999999993  3.4310000000000005  1.81 
C  0.6387999999999998  0.7164000000000001  3.3469 
C  0.1382000000000012  -0.014899999999999913  4.4335 
C  0.822000000000001  0.05310000000000015  5.645100000000001 
H  0.5113000000000003  -0.43569999999999975  6.3727 
C  1.9527999999999999  0.8246000000000002  5.7941 
H  2.372200000000001  0.8778000000000001  6.6227 
C  2.442500000000001  1.5169000000000001  4.714 
H  3.2108000000000008  2.0283  4.8277 
C  1.8181000000000012  1.4761000000000002  3.4751 
C  -1.0937999999999999  -0.8899999999999999  4.3293 
H  -1.4865999999999993  -0.7576999999999998  3.4415 
C  -2.136399999999999  -0.5118999999999998  5.3774 
H  -2.9013  -1.0842999999999998  5.287700000000001 
H  -1.7604999999999995  -0.6126999999999998  6.254100000000001 
H  -2.4013  0.40190000000000037  5.246 
C  -0.7047999999999988  -2.3544  4.476800000000001 
H  -1.4907000000000004  -2.9011  4.4094999999999995 
H  -0.0909999999999993  -2.5885  3.7764 
H  -0.28699999999999903  -2.4983  5.3294 
C  2.3522  2.2424000000000004  2.2828000000000004 
H  2.1430000000000007  1.7127000000000003  1.4863000000000004 
C  1.6721000000000004  3.5856  2.1386 
H  2.0295000000000005  4.017100000000001  1.3596999999999997 
H  0.7277000000000005  3.4581000000000004  2.028 
H  1.833400000000001  4.133900000000001  2.9094 
C  3.8603000000000005  2.3922000000000003  2.2716 
H  4.2676  1.5286000000000004  2.3661 
H  4.1583000000000006  2.7974  1.4541999999999997 
H  4.109  2.9468  3.0136 
