16
unq_CSD-OFAJOV-02-b
N  1.0465  1.7236000000000002  0.295300000000001 
N  -1.0465  1.7236000000000002  -0.295399999999999 
C  0.0  2.4713000000000003  0.0 
C  0.0  3.9618  0.0 
C  0.8555999999999999  4.6655  0.8308 
H  1.4495  4.1951  1.4036000000000008 
C  0.8507  6.052600000000001  0.8324999999999996 
H  1.4373  6.527500000000001  1.4093999999999998 
C  0.0  6.7421  0.0 
H  0.0  7.6918  0.0 
H  1.7315999999999998  2.066  0.3518000000000008 
C  -0.8555000000000001  4.6655  -0.8308999999999997 
H  -1.4495  4.1951  -1.4036999999999988 
C  -0.8507000000000002  6.052600000000001  -0.8325999999999993 
H  -1.4372000000000003  6.527500000000001  -1.4093999999999998 
H  -1.7316000000000003  2.066  -0.35189999999999877 
