84
unq_CSD-SIXREZ-02-a
N  1.2555000000000014  -1.5911000000000008  -0.1916000000000011 
N  1.6328999999999994  0.9627999999999997  -0.8893999999999984 
N  0.4653999999999989  2.9903999999999993  0.8747000000000007 
H  0.7955000000000005  2.3942999999999994  1.4111000000000011 
C  1.2271999999999998  -2.949200000000001  -0.010600000000000165 
C  2.2196999999999996  -3.5417000000000005  -0.7881 
H  2.423000000000002  -4.468700000000001  -0.8262 
C  2.8729000000000013  -2.5151000000000012  -1.5101000000000013 
C  2.2652  -1.3225000000000007  -1.1035000000000004 
C  2.5427  0.0688999999999993  -1.3894999999999982 
C  3.6765000000000008  0.5136999999999983  -2.080300000000001 
H  4.308299999999999  -0.1092000000000013  -2.4190000000000005 
C  3.8640000000000008  1.8727  -2.2600000000000016 
H  4.627200000000002  2.1880999999999986  -2.7288999999999994 
C  2.937100000000001  2.7741999999999987  -1.7567999999999984 
H  3.0527000000000015  3.7086999999999986  -1.8859999999999992 
C  1.836000000000002  2.2872999999999983  -1.0600999999999985 
C  0.8873999999999995  3.2071999999999985  -0.4277000000000015 
C  0.3733000000000004  4.4307  -0.8419999999999987 
C  -0.35379999999999967  4.960899999999999  0.26340000000000074 
H  -0.8189999999999991  5.789199999999999  0.27390000000000114 
C  -0.26940000000000097  4.0722999999999985  1.3104000000000013 
C  3.9072999999999993  -2.7170000000000005  -2.5447999999999986 
C  5.147300000000001  -3.237400000000001  -2.2132000000000005 
H  5.3428  -3.442700000000001  -1.3064999999999998 
C  6.112000000000002  -3.463400000000001  -3.1943 
H  6.9559  -3.8226000000000004  -2.952 
C  5.848800000000001  -3.1698000000000013  -4.5062999999999995 
H  6.510200000000001  -3.322700000000001  -5.1707 
C  4.617000000000001  -2.650100000000001  -4.8546 
H  4.4284  -2.4442000000000013  -5.762599999999999 
C  3.650100000000002  -2.4262000000000006  -3.8804 
H  2.804500000000001  -2.070900000000001  -4.1295 
C  0.5610999999999997  5.1067  -2.137599999999999 
C  0.6910999999999987  4.403599999999999  -3.341799999999999 
H  0.6134000000000022  3.4567999999999994  -3.3454999999999995 
C  0.9333999999999989  5.0844999999999985  -4.5305 
H  1.0536999999999992  4.594899999999999  -5.334899999999999 
C  1.0009000000000015  6.466899999999999  -4.5534 
H  1.160499999999999  6.924799999999999  -5.3721 
C  0.8354999999999997  7.181099999999999  -3.3736999999999995 
H  0.8670000000000009  8.130799999999999  -3.3857999999999997 
C  0.6243000000000016  6.504399999999999  -2.175699999999999 
H  0.5216999999999992  6.999199999999998  -1.3716000000000008 
C  0.18009999999999948  -3.6072000000000006  0.8125 
C  0.39229999999999876  -3.908200000000001  2.169699999999999 
C  -0.620000000000001  -4.522  2.9038000000000004 
H  -0.47749999999999915  -4.703600000000001  3.825099999999999 
C  -1.837299999999999  -4.878000000000001  2.3236999999999988 
C  -2.0230999999999995  -4.5967  0.9741999999999997 
H  -2.837299999999999  -4.851100000000001  0.559000000000001 
C  -1.0467999999999993  -3.950500000000001  0.21160000000000068 
C  1.6969999999999992  -3.571200000000001  2.8511999999999986 
H  1.6709999999999994  -3.8865000000000007  3.778600000000001 
H  1.828800000000001  -2.600900000000001  2.8397000000000006 
H  2.4360999999999997  -4.007900000000001  2.378 
C  -2.924199999999999  -5.5258  3.1415000000000006 
H  -3.6020000000000003  -5.905700000000001  2.542200000000001 
H  -3.3414  -4.855  3.722899999999999 
H  -2.5381  -6.238600000000001  3.6919000000000004 
C  -1.3629999999999995  -3.6069000000000004  -1.2235000000000014 
H  -1.8309999999999995  -4.359000000000001  -1.6443000000000012 
H  -0.5300000000000011  -3.427100000000001  -1.706199999999999 
H  -1.933399999999999  -2.811000000000001  -1.2506999999999984 
C  -0.7533999999999992  4.204699999999999  2.7052000000000014 
C  0.01699999999999946  4.938599999999999  3.623100000000001 
C  -0.4944999999999986  5.169899999999998  4.903500000000001 
H  0.018200000000000216  5.6690999999999985  5.526399999999999 
C  -1.7384000000000004  4.684299999999999  5.279399999999999 
C  -2.464699999999999  3.917399999999999  4.377600000000001 
H  -3.3002000000000002  3.5519999999999996  4.6463 
C  -1.9985999999999997  3.6701999999999995  3.0825999999999993 
C  1.3719999999999999  5.4863  3.2546 
H  1.7357000000000014  5.9914999999999985  4.010999999999999 
H  1.284200000000002  6.077699999999998  2.4771 
H  1.9739000000000004  4.744999999999999  3.0349000000000004 
C  -2.305299999999999  5.0245999999999995  6.6373 
H  -1.5827999999999989  5.0413  7.2989 
H  -2.966199999999999  4.3481999999999985  6.892900000000001 
H  -2.7339  5.9041  6.601600000000001 
C  -2.844199999999999  2.8878999999999984  2.1068 
H  -3.473799999999999  2.3225  2.601099999999999 
H  -2.2645  2.3237999999999985  1.5505999999999993 
H  -3.341199999999999  3.5089999999999986  1.5351 
