34
unq_CSD-OVAHEZ-02-a
N  -1.8244000000000007  -1.3184  0.8658000000000001 
N  -0.7411000000000003  0.7570999999999999  2.3122999999999996 
C  -2.2456000000000005  -1.0562  2.1285999999999996 
C  -3.1605000000000008  -2.0096  2.5208000000000004 
H  -3.5802000000000005  -2.0648999999999997  3.3493000000000004 
C  -3.3360000000000003  -2.8526  1.4722999999999997 
H  -3.9064000000000005  -3.5865  1.436 
C  -2.4936000000000007  -2.4041  0.4640000000000004 
H  -2.4085  -2.8015  -0.37399999999999967 
C  -1.6551  0.03630000000000022  2.8289 
H  -1.9465000000000003  0.22840000000000016  3.6918000000000006 
C  -0.16630000000000056  1.7967  3.1618000000000004 
C  -0.6628000000000007  3.1007000000000002  3.0221 
C  -0.07820000000000071  4.080399999999999  3.8256999999999994 
H  -0.36960000000000015  4.959999999999999  3.753 
C  0.9028999999999998  3.7769  4.703900000000001 
H  1.2575999999999992  4.447099999999999  5.243499999999999 
C  1.3761999999999999  2.5111000000000003  4.811 
H  2.0574000000000003  2.3276999999999997  5.4176 
C  0.8624999999999998  1.4914999999999998  4.036199999999999 
C  -1.7680000000000007  3.3924999999999996  2.0540000000000003 
H  -2.5135000000000005  2.8122000000000003  2.2721 
H  -1.4592  3.1382  1.17 
C  -2.2945  4.803699999999999  1.9660000000000002 
H  -3.0542000000000007  4.826599999999999  1.3804999999999996 
H  -1.6089000000000002  5.3812999999999995  1.6235 
H  -2.5565000000000007  5.101899999999999  2.8403 
C  1.4257  0.11250000000000027  4.122299999999999 
H  0.9311999999999996  -0.43720000000000026  3.492800000000001 
H  2.339299999999999  0.15549999999999953  3.7988999999999997 
C  1.4547999999999996  -0.5709  5.329599999999999 
H  2.3593  -0.6731000000000003  5.6204 
H  1.0520000000000005  -1.4365  5.2166999999999994 
H  0.9570999999999996  -0.07509999999999994  5.9877 
