54
unq_CSD-ABEYIQ-02-a
N  0.09660000000000002  1.1505999999999998  -1.8487 
N  -1.8971  -0.6243999999999996  -1.1707999999999998 
C  -0.9357000000000002  2.0551000000000004  -1.9520999999999997 
C  -0.7069000000000001  3.3823  -2.3876 
H  0.1474000000000002  3.6134999999999993  -2.7341999999999995 
C  -1.6805  4.3417  -2.3228 
H  -1.4772  5.2345999999999995  -2.5762 
C  -2.9687  4.023600000000001  -1.8899 
H  -3.6321  4.6993  -1.8092999999999995 
C  -3.2559  2.7231999999999994  -1.5854 
H  -4.1447  2.4933000000000005  -1.3438999999999997 
C  -2.2772  1.7141000000000002  -1.6185 
C  -2.7028  0.30379999999999985  -1.5942999999999996 
C  -4.0463000000000005  0.052200000000000024  -2.2138 
H  -4.1933  -0.9123000000000001  -2.2948999999999993 
H  -4.079  0.4648000000000003  -3.1024 
H  -4.7448  0.44179999999999975  -1.6468999999999996 
C  -2.2363  -2.0517  -1.4947 
H  -2.6222  -2.0722  -2.4166999999999996 
C  -3.2634  -2.6547  -0.5495000000000001 
H  -4.0796  -2.0939  -0.5392999999999999 
H  -2.8966  -2.6801999999999997  0.3696999999999999 
C  -3.6181  -4.0738  -1.0046999999999997 
H  -4.2816  -4.466  -0.3826999999999998 
H  -4.0237  -4.0419  -1.9063999999999997 
C  -2.3756  -4.9399  -1.0366 
H  -2.6123  -5.8392  -1.3786999999999994 
H  -2.0267  -5.0459  -0.11599999999999966 
C  -1.288  -4.3293  -1.9253 
H  -0.46629999999999994  -4.8786  -1.8643999999999998 
H  -1.5907  -4.3344  -2.8675999999999995 
C  -0.9742000000000002  -2.9012  -1.5019 
H  -0.3155000000000001  -2.509  -2.1281999999999996 
H  -0.5728  -2.9063  -0.5972999999999997 
C  1.1590999999999996  1.3167999999999997  -2.8106 
C  1.0052000000000003  0.7471000000000005  -4.0691 
C  2.0232  0.8927000000000005  -4.9986999999999995 
H  1.9123  0.5197000000000003  -5.8656999999999995 
C  3.1916  1.5633  -4.700099999999999 
C  3.3213999999999997  2.1369  -3.4561999999999995 
H  4.1126  2.6209999999999996  -3.2518 
C  2.3258  2.027  -2.4878 
C  -0.2574000000000001  0.01130000000000031  -4.429 
H  -0.9714  0.6576000000000004  -4.613099999999999 
H  -0.5225  -0.5648  -3.6822999999999997 
H  -0.10009999999999986  -0.5380000000000003  -5.2249 
C  4.3034  1.7012999999999998  -5.741 
H  5.1584  1.8571  -5.2886999999999995 
H  4.1056  2.4562  -6.3339 
H  4.3593  0.8773999999999997  -6.270099999999999 
C  2.5140000000000002  2.6581  -1.1467 
H  2.9000000000000004  2.0027  -0.5291999999999994 
H  1.6473000000000004  2.9608  -0.8045999999999998 
H  3.1186999999999996  3.4257999999999997  -1.2294 
