40
unq_CSD-ALOGIR-02-a
N  0.01399999999999979  -1.4219000000000002  -1.3295000000000001 
N  0.06579999999999986  1.3532000000000002  -1.3932 
C  0.19850000000000012  -0.0798000000000001  -3.3912999999999998 
C  0.16809999999999992  -1.3089000000000002  -2.7133999999999996 
C  -0.14429999999999987  2.6517  -1.1838 
H  -0.22520000000000007  3.0460000000000003  -0.3237 
C  -0.05500000000000016  2.4450000000000003  -3.3933999999999997 
H  -0.049799999999999844  2.6205999999999996  -4.3274 
C  0.11799999999999988  1.1751  -2.7756999999999996 
C  0.27879999999999994  -3.5011  -2.1967 
H  0.35550000000000015  -4.4473  -2.2411999999999996 
C  0.0838000000000001  -2.7246  -1.0396 
H  0.010800000000000143  -3.082  -0.16290000000000002 
C  0.33619999999999983  -2.6196  -3.2476 
H  0.4636  -2.842  -4.1618 
C  0.32109999999999994  -0.11189999999999989  -4.8762 
C  -0.2301000000000002  3.3697  -2.3962999999999997 
H  -0.37970000000000015  4.3027999999999995  -2.5004 
C  1.5050000000000003  0.5183999999999997  -6.8893 
H  2.2262999999999997  0.9769999999999999  -7.3051 
C  -0.5741  -0.8468  -5.657900000000001 
H  -1.2845  -1.3210000000000002  -5.2393 
C  1.3603  0.5741999999999998  -5.5141 
H  1.9731  1.0835  -4.9972 
C  -0.4367000000000001  -0.8937000000000002  -7.0392 
H  -1.0537  -1.3960000000000001  -7.5581000000000005 
C  0.6023000000000001  -0.2038000000000002  -7.6733 
C  0.7360000000000002  -0.23170000000000002  -9.0963 
C  0.9608000000000003  -0.27180000000000026  -11.723099999999999 
C  -0.06769999999999987  -0.8165  -12.4986 
H  -0.8475999999999999  -1.1580000000000001  -12.077 
C  0.8445999999999998  -0.23430000000000017  -10.3013 
C  2.2326  0.13090000000000002  -13.7358 
H  3.0286000000000004  0.4321999999999999  -14.156899999999998 
C  2.1077  0.20779999999999976  -12.364199999999999 
H  2.8076000000000003  0.5909  -11.8491 
C  0.04599999999999982  -0.8594000000000002  -13.8796 
H  -0.665  -1.2127000000000001  -14.4005 
C  1.1934999999999998  -0.3900999999999999  -14.505199999999999 
H  1.2689999999999997  -0.4234  -15.4514 
