25
unq_CSD-APOPUS-02-a
N  -1.4603999999999981  -0.8326000000000002  0.9805000000000006 
N  0.5640999999999998  1.2032999999999996  1.4842 
N  -1.7044999999999995  -0.6389000000000005  2.2899 
C  -2.334199999999999  -1.7894000000000005  0.42790000000000017 
C  -3.2891999999999992  -2.4897000000000005  1.1578000000000004 
H  -3.3907999999999987  -2.3160000000000007  2.0759000000000003 
C  -4.086599999999999  -3.4379000000000004  0.5490000000000004 
H  -4.713799999999999  -3.9140000000000006  1.0637000000000003 
C  -3.977499999999999  -3.6946000000000003  -0.7982999999999998 
H  -4.528799999999999  -4.3375  -1.2077999999999998 
C  -3.0515999999999988  -2.9962000000000004  -1.5354999999999999 
H  -2.974099999999998  -3.1575  -2.4585 
C  -2.235899999999999  -2.0623000000000005  -0.9375999999999998 
H  -1.6023999999999994  -1.6005000000000003  -1.4571999999999998 
C  -1.0205999999999982  0.1910999999999996  3.0136 
H  -1.2840999999999987  0.19679999999999964  3.9171 
C  0.050200000000000244  1.1030999999999995  2.7324000000000006 
C  0.5302000000000007  1.9101999999999997  3.7630000000000003 
H  0.16370000000000218  1.831999999999999  4.6249 
C  1.5184999999999995  2.8079  3.5295 
H  1.858900000000002  3.3392999999999997  4.225099999999999 
C  2.0161000000000016  2.924299999999999  2.2471 
H  2.680500000000002  3.5587  2.0502 
C  1.532  2.1114999999999995  1.2752000000000003 
H  1.8919999999999995  2.1877999999999993  0.4096000000000002 
