40
unq_CSD-SOJSIV-02-c
N  -0.5829000000000004  -2.0426  -0.4918 
N  -1.3178  -1.1015000000000015  1.3378 
C  -1.3506  -2.1854000000000013  0.585 
C  -2.1612999999999998  -3.4258000000000024  0.8717999999999999 
C  -1.6275999999999993  -4.470200000000002  1.616 
H  -0.7536000000000005  -4.3918  1.9804 
C  -2.3625999999999996  -5.636800000000001  1.8321999999999998 
H  -1.9871999999999996  -6.342600000000001  2.3422 
C  -3.4480000000000004  -3.5618000000000016  0.367 
H  -3.8255999999999997  -2.8592000000000013  -0.14640000000000009 
C  -4.1954  -4.715300000000003  0.6029999999999998 
H  -5.0863  -4.783900000000003  0.2799999999999998 
C  -3.6346  -5.760900000000001  1.3085 
H  -4.1219  -6.568000000000001  1.4325999999999999 
C  -1.2646999999999995  -3.9212000000000025  -2.0638 
H  -1.6005000000000003  -4.5649000000000015  -1.4057000000000002 
H  -0.9231999999999996  -4.404800000000002  -2.8468 
H  -1.9928000000000008  -3.326500000000003  -2.3394000000000004 
C  -0.125  -3.087600000000002  -1.4333 
C  0.8902999999999999  -4.016000000000002  -0.7398 
H  1.6173000000000002  -3.4801  -0.3591000000000002 
H  1.2577999999999996  -4.646600000000003  -1.3954 
H  0.44260000000000055  -4.512700000000002  -0.024900000000000144 
C  0.5805000000000007  -2.3592000000000013  -2.5763000000000003 
H  -0.03790000000000049  -1.7220000000000013  -2.9872 
H  0.8699999999999992  -3.012800000000002  -3.2482 
H  1.3606999999999996  -1.882200000000001  -2.2275 
C  -1.5395000000000003  0.41499999999999915  3.2165 
H  -0.6575000000000006  0.1339999999999968  3.5385999999999997 
H  -2.0968999999999998  0.6763999999999974  3.9787999999999997 
H  -1.4366000000000003  1.1796999999999969  2.6117999999999997 
C  -3.5679  -0.25810000000000244  1.9175 
H  -3.4254  0.5130999999999979  1.3325999999999998 
H  -4.1468  -0.0032000000000032003  2.6643 
H  -3.9930000000000003  -0.9803000000000033  1.4076 
C  -2.2077  -0.7483000000000004  2.4635999999999996 
C  -2.4395  -1.8658000000000001  3.4551 
H  -2.9991000000000003  -2.5553000000000026  3.0433000000000003 
H  -2.8906  -1.5096000000000025  4.2484 
H  -1.5790000000000006  -2.2547000000000033  3.7161 
