33
unq_CSD-SATSAJ-02-c
N  -0.9177  1.8286000000000007  -0.5705 
N  1.8394999999999997  0.9438000000000004  -0.5465999999999998 
C  -2.188  2.1771000000000003  -0.3325999999999998 
H  -2.7926  1.6641000000000004  0.19059999999999988 
C  -2.518  3.3890000000000002  -0.9502999999999999 
H  -3.3574  3.8318000000000003  -0.9121999999999999 
C  -1.3979  3.8160999999999996  -1.6214999999999997 
H  -1.314  4.603800000000001  -2.1462 
C  -0.3875000000000002  2.8422  -1.3697999999999997 
C  0.9545999999999997  2.8991000000000007  -1.7801 
C  1.9815  2.0437000000000003  -1.3988 
C  3.3656  2.168  -1.7388999999999997 
H  3.7468  2.8209  -2.314 
C  4.0349  1.1814  -1.0875999999999997 
H  4.971  1.0191  -1.109 
C  3.0626  0.44370000000000065  -0.3736999999999999 
H  3.2579999999999996  -0.3146999999999993  0.16469999999999985 
C  1.3196999999999997  4.041100000000001  -2.6984 
C  1.8265999999999996  5.2345999999999995  -2.1874 
C  2.1066  6.2497  -3.098 
H  2.4315  7.071700000000001  -2.7501999999999995 
C  1.4807000000000001  5.0089  -4.8613 
H  1.3675000000000002  4.9217  -5.801 
C  1.1347999999999998  3.916800000000001  -4.0727 
C  2.0794  5.453  -0.7229999999999999 
H  2.6134  6.2655  -0.601 
H  2.5656000000000003  4.685200000000001  -0.35699999999999976 
H  1.2243999999999997  5.551100000000001  -0.25479999999999947 
C  0.6013999999999995  2.6681  -4.7042 
H  1.1259000000000001  1.8985000000000003  -4.3976 
H  0.6676999999999995  2.7421000000000006  -5.6789 
H  -0.33640000000000025  2.5482000000000005  -4.4479999999999995 
N  1.9552  6.1621999999999995  -4.4098 
