23
unq_CSD-SEGMEX-02-a
N  -0.2671000000000001  -1.0564  -1.8132000000000001 
N  -1.9126000000000003  0.5849000000000002  -0.2586000000000013 
N  0.5430000000000001  -2.9079999999999995  -3.111300000000001 
N  -0.5228000000000002  -3.0423999999999998  -5.265600000000001 
N  -2.2071  0.19700000000000006  -2.568900000000001 
H  -2.3517  0.7847  0.45229999999999926 
C  0.49570000000000025  -2.1639999999999997  -2.0481000000000016 
H  1.0568999999999997  -2.4206999999999996  -1.3527000000000005 
C  -0.30699999999999994  -2.4904999999999995  -4.032400000000001 
C  -1.1961  -1.4285999999999994  -3.9319000000000006 
C  -1.2201  -0.7212999999999994  -2.7173000000000016 
N  -1.9773  -1.3343999999999996  -5.078600000000001 
C  -1.5366  -2.3038999999999996  -5.823500000000001 
H  -1.8799000000000001  -2.4829999999999997  -6.668800000000001 
C  0.19949999999999957  -4.1891  -5.822000000000001 
H  0.8586999999999998  -4.4886  -5.189900000000001 
H  0.6326999999999998  -3.9299999999999997  -6.637900000000001 
H  -0.41900000000000004  -4.901199999999999  -5.999700000000001 
C  -2.5486000000000004  0.6933000000000007  -1.3790000000000013 
C  -3.8332  1.5114  -1.3759000000000015 
H  -4.2051  1.5261000000000005  -2.2614 
H  -3.6402  2.4090999999999996  -1.0962000000000014 
H  -4.4639  1.1153000000000004  -0.7701000000000011 
