36
unq_CSD-SOPDOR-02-a
N  -1.8659000000000003  -0.6084999999999998  0.04249999999999954 
N  0.8961999999999994  -0.3323999999999998  -1.7319000000000004 
C  0.46369999999999933  -1.0916  -2.7015000000000002 
H  1.0835  -1.225  -3.4089 
C  -0.7800000000000002  -1.7501  -2.8713 
C  -1.0161000000000007  -2.4512  -4.074 
H  -0.3792  -2.5674  -4.7683 
C  -2.3168  -2.9471  -4.0941 
H  -2.7153  -3.4552  -4.7914 
C  -2.9258  -2.5628  -2.9075 
H  -3.8197  -2.769  -2.6623 
C  -2.0201000000000002  -1.816  -2.1137 
C  -2.4863000000000004  -1.2959  -0.8879000000000001 
H  -3.4014  -1.4741  -0.7050999999999998 
C  -2.6807000000000003  -0.20540000000000003  1.1456999999999997 
C  -3.9539  0.3367  0.9748999999999999 
H  -4.3052  0.4466000000000001  0.09969999999999946 
C  -4.710100000000001  0.7139000000000002  2.0671 
H  -5.5698  1.0930000000000004  1.9323999999999995 
C  -4.2316  0.5461999999999998  3.3521 
H  -4.7617  0.7913000000000001  4.1007 
C  -2.9604000000000004  0.012500000000000178  3.5310000000000006 
H  -2.6220000000000003  -0.10999999999999988  4.4102 
C  -2.1844  -0.3422999999999998  2.4459 
H  -1.3079  -0.6816  2.5824999999999996 
C  2.1926999999999994  0.25280000000000014  -1.9459000000000004 
C  3.258399999999999  -0.4525999999999999  -2.4996 
H  3.157099999999999  -1.3732  -2.7126 
C  4.4662  0.18409999999999993  -2.7417000000000002 
H  5.182300000000001  -0.3001999999999998  -3.1346000000000003 
C  4.638799999999999  1.5178999999999996  -2.4182 
H  5.4693  1.9501000000000004  -2.584 
C  3.5895  2.2140999999999997  -1.8515000000000001 
H  3.6985  3.1305  -1.6254 
C  2.3732999999999995  1.5844999999999998  -1.6094 
H  1.6613999999999995  2.0707  -1.2105000000000006 
