21
unq_CSD-SOXDOA-02-a
N  1.8422  0.8100999999999998  -0.21579999999999977 
N  0.41610000000000014  -1.1798  -1.5917 
N  1.8951  0.42700000000000005  -2.6001 
C  2.4834  1.3256999999999999  0.8717000000000001 
H  2.1786000000000003  1.0871  1.7388 
C  3.5414000000000003  2.1682  0.7603 
H  3.9937000000000005  2.486  1.5326 
C  3.9475  2.5563  -0.5184 
H  4.6465  3.1907  -0.6222999999999999 
C  3.3388999999999998  2.0205999999999995  -1.6191 
H  3.608  2.3004000000000002  -2.4861999999999997 
C  2.3063000000000002  1.0474  -1.4836 
C  1.1503  -0.6819999999999999  -2.6284 
C  1.1522000000000001  -1.4166  -3.8529999999999998 
H  1.5931000000000002  -1.0556  -4.6128 
C  0.5290000000000001  -2.6311  -3.9494 
H  0.5481  -3.1152  -4.7666 
C  -0.1360999999999999  -3.1537  -2.8354 
H  -0.5466  -4.0094  -2.8735999999999997 
C  -0.18469999999999986  -2.41  -1.6923 
H  -0.6500000000000001  -2.7566  -0.9399 
