41
unq_CSD-SUQDAL-02-c
N  -0.7578999999999999  1.7051  0.6013000000000002 
N  -1.8394  -0.7031000000000001  -0.1042999999999994 
N  -1.8378999999999999  1.7922  1.3559 
N  -2.7938  -0.36060000000000003  0.7276000000000007 
C  0.6590000000000003  3.3015  -0.6080999999999994 
H  0.6783000000000001  2.714  -1.3538999999999994 
C  1.3610000000000002  4.4986  -0.6410999999999998 
H  1.8472  4.7359  -1.4221999999999992 
C  1.3602000000000003  5.3484  0.44510000000000005 
H  1.8537  6.1597  0.4189000000000007 
C  0.6377999999999999  5.0074000000000005  1.5700000000000003 
H  0.6415000000000002  5.5872  2.3237000000000005 
C  -0.09039999999999981  3.8387000000000002  1.6166999999999998 
H  -0.6016999999999999  3.6248  2.3886000000000003 
C  -0.07319999999999993  2.9701  0.5264000000000006 
C  -2.6715999999999998  0.7504  1.4915000000000003 
C  -2.1975  -1.8538999999999999  -0.8985999999999992 
C  -2.9280999999999997  -2.9054  -0.3644999999999996 
H  -3.261  -2.8529999999999998  0.5248000000000008 
C  -3.1695  -4.0272  -1.1306999999999992 
H  -3.663  -4.751  -0.7617999999999991 
C  -2.7031  -4.1096  -2.4263999999999992 
H  -2.8686999999999996  -4.8901  -2.9433999999999996 
C  -1.9953999999999998  -3.0552  -2.971799999999999 
H  -1.6873999999999998  -3.1044  -3.8689999999999998 
C  -1.7363  -1.9251999999999998  -2.2117999999999993 
H  -1.2447  -1.2025000000000001  -2.5846999999999998 
C  -3.7152  0.9359  2.535300000000001 
C  -4.5717  -0.10309999999999997  2.9025 
H  -4.5053  -0.9420000000000002  2.461500000000001 
C  -5.5161  0.07099999999999995  3.9007000000000005 
H  -6.0945  -0.6499999999999999  4.1227 
C  -5.6385000000000005  1.2757  4.5854 
C  -4.768  2.3068  4.227500000000001 
H  -4.829  3.1409000000000002  4.6783 
C  -3.8186  2.1414999999999997  3.233500000000001 
H  -3.2314  2.8581000000000003  3.024000000000001 
C  -6.686999999999999  1.4891  5.6495 
H  -7.369199999999999  2.1085000000000003  5.3171 
H  -6.2673000000000005  1.8655  6.4511 
H  -7.105499999999999  0.6309  5.8727 
