36
unq_CSD-TAPXOY-02-a
N  1.6626999999999992  -0.6525999999999996  1.2604000000000006 
N  1.0790999999999995  -1.8171  -0.5127000000000006 
C  2.3819999999999997  -0.2977999999999996  2.4807000000000006 
H  3.1941000000000006  -0.8788  2.5439000000000007 
C  2.8369999999999997  1.1425999999999998  2.4162999999999997 
H  3.442499999999999  1.2607999999999997  1.6547999999999998 
H  3.3049  1.3752000000000004  3.2448999999999995 
H  2.0572999999999997  1.7262000000000004  2.306800000000001 
C  1.517199999999999  -0.5542999999999996  3.7101000000000006 
H  0.6906999999999996  -0.03200000000000003  3.6418 
H  2.0069  -0.2865000000000002  4.5154 
H  1.298  -1.5078999999999998  3.7629 
C  1.8293  -1.7602000000000002  0.5954999999999995 
C  3.9514999999999993  -2.7997  0.46799999999999997 
H  4.2858  -1.8779  0.6071000000000009 
H  3.855599999999999  -2.953  -0.5048999999999992 
C  2.6656999999999993  -2.9672  1.1277000000000008 
H  2.7623999999999995  -2.9266  2.1121999999999996 
H  2.2471999999999994  -3.8285  0.8789999999999996 
C  4.9762  -3.8465  1.0826000000000011 
H  5.893800000000001  -3.5572  0.8481000000000005 
H  4.898899999999999  -3.8141  2.069700000000001 
C  4.8093  -5.2327  0.6547999999999998 
H  3.996599999999999  -5.6023  1.0580999999999996 
H  5.5852  -5.7581  0.9435000000000002 
H  4.736000000000001  -5.2663  -0.32070000000000043 
C  1.0251000000000001  -2.9867  -1.3927999999999994 
H  1.702  -3.6529  -1.0770999999999997 
C  1.3659999999999997  -2.5961  -2.8205 
H  0.7203999999999997  -1.9308  -3.1400999999999994 
H  1.3292000000000002  -3.3891  -3.3952 
H  2.2684999999999995  -2.2142  -2.8488999999999995 
C  -0.3369  -3.6224  -1.3218999999999994 
H  -0.5468999999999999  -3.8421000000000003  -0.3902000000000001 
H  -0.34280000000000044  -4.4415  -1.8605 
H  -1.0072  -2.9981  -1.6697999999999995 
