54
unq_CSD-TARSEL-02-a
N  2.145200000000001  0.08549999999999969  -0.1045 
N  1.0310000000000006  -0.05109999999999992  1.8462 
Si  3.3406000000000002  0.7080000000000002  -1.1606 
C  2.6506000000000007  0.6201000000000008  -2.8733 
H  1.7966999999999995  1.0823  -2.9018 
H  2.5244999999999997  -0.3084000000000007  -3.1234 
H  3.2666000000000004  1.0425000000000004  -3.4918 
C  3.6853  2.5114  -0.7927 
H  4.0524000000000004  2.5953  0.1013 
H  2.8597  3.0176  -0.8529 
H  4.322900000000001  2.8569000000000013  -1.4366 
C  5.0017  -0.16339999999999932  -1.1369 
H  5.3734  -0.12780000000000058  -0.2417 
H  5.6066  0.2759999999999998  -1.7565 
H  4.885  -1.0891000000000002  -1.4018 
C  2.1983999999999995  0.02430000000000021  1.2435 
C  3.4997000000000007  0.06269999999999953  1.9908 
C  3.9275  1.2103000000000002  2.6337 
H  3.3956999999999997  1.9838000000000005  2.6147 
C  5.141500000000001  1.2202000000000002  3.3061 
H  5.4178  2.0008999999999997  3.7505 
C  5.9338  0.11819999999999986  3.3335 
H  6.758000000000001  0.13809999999999967  3.7853 
C  5.525600000000001  -1.0222999999999995  2.698 
H  6.0669  -1.7916000000000007  2.7149 
C  4.3123000000000005  -1.0421999999999993  2.0309 
H  4.039300000000001  -1.8285  1.596 
C  0.8974000000000011  -0.20459999999999923  3.2892 
H  0.36190000000000033  0.5376999999999992  3.6407 
H  1.7873  -0.15339999999999954  3.6987 
C  0.24319999999999986  -1.5199999999999996  3.6882 
H  -0.5313999999999997  -1.6423000000000005  3.0833 
C  -0.3354999999999997  -1.4304000000000006  5.1322 
H  0.09479999999999933  -0.6796000000000006  5.5935 
H  -1.2934999999999999  -1.2270000000000003  5.072 
C  -0.15579999999999927  -2.7088  5.9967 
H  0.21509999999999962  -2.4557  6.8676 
H  -1.0348999999999995  -3.115500000000001  6.1519 
C  0.7418999999999993  -3.7170000000000005  5.356 
H  0.8964999999999996  -4.534599999999999  5.8922 
C  0.2684999999999995  -3.9715000000000007  3.913 
H  -0.6951999999999998  -3.8549000000000007  3.78 
H  0.5840999999999994  -4.8162  3.5298 
C  1.1160999999999994  -2.7401  3.5161 
H  1.5686  -2.808299999999999  2.6389 
C  2.0221999999999998  -3.0785  4.7596 
C  2.7333  -2.0035000000000007  5.528 
H  2.1019000000000005  -1.3109000000000002  5.7772 
H  3.4321  -1.6209000000000007  4.976 
H  3.1271000000000004  -2.3859999999999992  6.3292 
C  3.0836000000000006  -4.1279  4.3901 
H  2.6625999999999994  -4.856  3.9046 
H  3.4914000000000005  -4.4735  5.1998 
H  3.7644  -3.718400000000001  3.8338 
