38

Pd  0.0  0.0  0.0 
P  1.5818420022239892  -1.4106296041130002  -1.3061512572069497e-16 
N  1.5818420022239892  1.4106296041130002  4.9292301979082937e-17 
C  1.410053867897933  2.6954351084889145  0.288341104995677 
H  0.5329920251251945  3.0039295415641605  0.47878681566853054 
C  2.464022616888012  3.616456541905482  0.32439683047167306 
H  2.2993117471104862  4.5239992279991785  0.5543079922167459 
C  3.7269987488118703  3.202524693107259  0.02856173326174467 
H  4.4388242557223885  3.8296603759403642  -0.016950166600284314 
C  3.9667474762074315  1.8326928574745165  -0.2099605923164795 
C  5.259356052797086  1.2797353286337172  -0.43757627504762997 
H  6.007325566585966  1.8592222312313726  -0.5187461965717067 
C  5.44162580687843  -0.06669891212098873  -0.5404134865540906 
H  6.31155013187544  -0.41469081486335957  -0.6992551511268639 
C  4.3466107521145005  -0.9483260638366962  -0.41224354000651753 
H  4.484606983610422  -1.888546101848711  -0.44282670880256575 
C  3.0788317319637732  -0.44215619619878327  -0.24374822505338672 
C  2.8745530806292696  0.9545191282488777  -0.16786304410230085 
C  1.792981636773751  -2.261662275268987  1.5832965064533393 
H  1.8696006002793926  -1.5995157576596932  2.3013425799397282 
H  2.60545594187425  -2.8084856495629302  1.5549523557822729 
H  1.017266658334481  -2.837583365845306  1.7498873515029847 
C  1.6400292414427189  -2.6971391986292255  -1.271005652390988 
H  2.5149187352321807  -3.1377475469779186  -1.248815631609755 
H  1.5001305447898485  -2.2926344595139607  -2.1515440392363048 
H  0.9362098304526588  -3.3580508350231235  -1.098799248349928 
Br  -1.654629867976521  1.654629867976521  0.0 
C  -1.352040782177733  -1.3199206589279684  -0.4819701001757076 
C  -1.6380700204479186  -1.599217458033982  -1.8139382277462257 
H  -1.1579680913617836  -1.159339363685303  -2.503515938957912 
C  -2.63068216563725  -2.52632649780156  -2.142289956238523 
H  -2.8368222554424674  -2.694399528648736  -3.0538898079700485 
C  -3.3101544432602585  -3.1961573187854975  -1.1619874135498987 
H  -3.9960123560788676  -3.811990145619169  -1.3868663427944008 
C  -2.9974710358883443  -2.9701089012107795  0.12423560353005347 
H  -3.438659168087169  -3.468581175155742  0.8017084178296768 
C  -2.0389854250767776  -2.015940632791841  0.4912562833419403 
H  -1.8619130127668426  -1.8492165108145995  1.4101568590026907 
