15

Zn    -1.427402    0.062285   -0.204720
N     -2.608625   -1.346534   -0.286516
N     -2.018650    1.150102    1.566875
N     -1.888093    1.365933   -1.683053
N      0.416649   -0.217104   -0.097059
C      1.350605    0.720840   -0.243444
C      2.572718    0.084204   -0.088066
Cl     4.140804    0.874355   -0.187806
N      2.299254   -1.212557    0.145038
C      0.969927   -1.392882    0.138479
H     -2.314702   -2.178779    0.240702
H     -1.695856    0.423830    2.213975
H     -1.368524    2.228391   -1.366373
H      1.134703    1.768638   -0.444980
H      0.437190   -2.330721    0.296949
