15

Zn    -1.469407    0.053135   -0.203115
N     -2.642722   -1.344842   -0.270114
N     -2.037368    1.167015    1.557664
N     -1.901857    1.382391   -1.673028
N      0.380277   -0.231198   -0.093011
C      1.329511    0.700157   -0.225205
C      2.569362    0.108607   -0.081176
Cl     4.143999    0.862943   -0.161980
N      2.318147   -1.189755    0.138057
C      0.991485   -1.387510    0.129452
H     -2.309226   -2.197165    0.189210
H     -1.722610    0.438187    2.202183
H     -1.335523    2.201566   -1.370798
H      1.191190    1.773319   -0.417688
H      0.494743   -2.336851    0.279548
