15

Zn        -1.46940        0.05310       -0.20310
N         -2.64270       -1.34480       -0.27010
N         -2.03740        1.16700        1.55770
N         -1.90190        1.38240       -1.67300
N          0.37338       -0.20464       -0.08694
C          1.21098        0.83816        0.03639
C          2.48702        0.35229        0.12139
Cl         3.94235        1.31256        0.30823
N          2.46085       -0.99239        0.05090
C          1.15036       -1.29855       -0.07549
H         -2.37822       -1.97896        0.51642
H         -1.69037        0.61500        2.37349
H         -1.47975        2.29397       -1.38749
H          0.90629        1.87920        0.06720
H          0.77124       -2.30657       -0.14979
