15

Zn    -1.427402    0.062285   -0.204720
N     -2.608625   -1.346534   -0.286516
N     -2.018650    1.150102    1.566875
N     -1.888093    1.365933   -1.683053
N      0.266179    0.145027    0.003090
C      1.176087    1.127907    0.110671
C      2.416807    0.565920    0.268810
Cl     3.924427    1.437801    0.450840
N      2.315058   -0.772937    0.264301
C      0.992943   -0.988559    0.100744
H     -2.193779   -1.827238    0.542763
H     -1.630665    0.507281    2.292495
H     -1.492800    2.297984   -1.425497
H      0.945126    2.184265    0.076266
H      0.556413   -1.977007    0.052708
