24

Fe  0.0  0.0  0.0 
O  1.30028  1.28832  0.0 
N  1.30028  -1.28832  0.0 
C  1.21358  -2.70957  0.02525 
H  0.26355  -3.20414  0.17523 
C  2.32724  -3.44609  -0.11362 
H  2.26501  -4.52983  -0.09281 
C  3.64993  -2.78901  -0.32232 
H  4.53116  -3.40472  -0.4853 
C  3.74937  -1.44422  -0.32333 
C  5.0375  -0.70927  -0.56006 
H  5.98665  -1.24217  -0.7931 
C  4.94177  0.80317  -0.58325 
H  5.83693  1.37978  -0.78989 
C  3.77262  1.44992  -0.35997 
H  3.74125  2.5309  -0.39817 
C  2.51824  0.68926  -0.12038 
C  2.53793  -0.6458  -0.10179 
Br  -1.62635  1.62635  0.0 
Cl  -3.13995  -4.52493  -0.58983 
O  -2.7829  -2.69187  2.2372 
O  -4.0329  -1.44796  -0.93695 
O  -1.26572  -1.26572  0.0 
O  -1.74121  -3.73458  -1.14347 
39

Fe  0.0  0.0  0.0 
O  1.23955  1.34685  0.0 
N  1.23955  -1.34685  0.0 
C  2.42322  0.68764  -0.26722 
C  1.15811  -2.76598  0.01795 
H  0.26025  -3.25242  0.3555 
C  2.4372  -0.66612  -0.28261 
C  3.58972  1.47959  -0.78543 
C  4.7484  -0.69083  -1.3094 
C  4.68103  0.82488  -1.26608 
H  5.50647  1.38236  -1.67923 
C  3.4675  -2.80971  -0.81699 
H  4.26892  -3.41573  -1.21729 
C  3.56449  -1.47674  -0.76455 
C  2.23244  -3.48149  -0.35595 
H  2.17484  -4.56825  -0.35203 
C  3.53292  2.97142  -0.80314 
H  2.71771  3.28017  -1.49438 
H  4.48094  3.42033  -1.16074 
H  3.31021  3.34774  0.21317 
C  5.93397  -1.40862  -1.98611 
H  6.62158  -0.67549  -2.45006 
H  5.56056  -2.09165  -2.77575 
H  6.4679  -1.98485  -1.20748 
C  -1.35057  1.35057  0.0 
N  -1.2549  2.25234  1.01644 
C  -2.25157  3.1444  1.2717 
F  -2.27942  3.81263  2.45322 
C  -3.2529  3.35124  0.32415 
F  -4.17575  4.32707  0.50645 
C  -3.26982  2.55298  -0.82046 
F  -4.12601  2.84718  -1.83085 
C  -2.39786  1.45422  -0.91783 
F  -2.36411  0.70975  -2.05244 
Cl  -3.14711  -4.58676  -0.64049 
O  -2.79287  -2.69254  2.26553 
O  -4.04193  -1.45764  -0.93631 
O  -1.26572  -1.26572  0.0 
O  -1.72747  -3.76562  -1.08537 
40

Fe  0.0  0.0  0.0 
O  1.268155576023697  1.3199550882511122  -2.195406913726377e-15 
N  1.2681555760236989  -1.3199550882511117  0.0 
C  2.4311647441799877  0.7204599523609578  -0.23288311838451747 
C  3.6103446664431322  1.3912970875647168  -0.49856437282885446 
H  3.6303453168832034  2.318717320189415  -0.4543464341577117 
C  4.784611463142066  0.6843494131280259  -0.8372066409806627 
H  5.564325539241158  1.1632657570451295  -1.0046313555900421 
C  4.81515158292775  -0.6676898311500241  -0.9256551741257301 
H  5.604501231241434  -1.1043571997069972  -1.151675973931023 
C  3.6334781206879514  -1.412434386286726  -0.6693635702201711 
C  2.4502358616887445  -0.7038636111710277  -0.2852764275423905 
C  1.1489503523424172  -2.6462288536104355  -0.25714640570441827 
C  -0.11303190192059209  -3.279065498913846  -0.17173141705243566 
H  -0.8678319434115116  -2.776484433160345  0.03262168351461214 
C  -0.2299971816130102  -4.607260848592649  -0.38511219509506656 
H  -1.0664488825406322  -5.009850970582393  -0.3279201878601704 
C  0.9121316333813012  -5.4016057807291045  -0.6974240724690356 
H  0.8201603778594437  -6.321252309466956  -0.80650734496374 
C  2.128204606508828  -4.829252583469202  -0.8363669082511989 
H  2.861920061902872  -5.353926946380744  -1.0607459033003748 
C  2.2966022386844083  -3.4236127503304044  -0.6394170492230954 
C  3.5263502131937896  -2.787754559039938  -0.8097635483326981 
H  4.280618349221171  -3.2893669554717473  -1.0199044599128162 
N  -1.322289680818844  1.3222896808188438  1.9604257551689998e-17 
C  -1.0775293024680377  2.7450506203582306  -0.12903315895756182 
H  -1.5319863540989396  3.0823833287004714  -0.9299215482512496 
H  -0.11403624819992664  2.9054443301685886  -0.20917411122527432 
H  -1.4213935376210096  3.209204009270539  0.661631289050492 
C  -2.766526254004394  1.0962518828813996  0.12950260451763726 
H  -3.10134334133381  1.5688653222010536  0.9205086127164946 
H  -2.939326567118571  0.13616624198896132  0.22536533940349687 
H  -3.2228279632873145  1.4316038325627578  -0.6688790272540343 
Cl  -0.113636316404085  -2.9302828941688475  0.1840911029119081 
Cl  -1.765275221580267  -1.4448404622349114  -2.0806340279414166 
Si  -1.6404877323527902  -1.6404877323527902  0.0 
C  -3.2542900979710137  -2.7404045796975756  0.42908602127328427 
H  -3.3154490736950324  -2.744428231395631  1.274203084120439 
H  -3.8862354775152856  -2.169936805032543  0.18252447653977943 
H  -3.120370431554739  -3.425363646190915  0.010729343096005983 
