58

Fe  0.0  0.0  0.0 
S  0.22989999518340443  -2.288747961721844  1.426910089681474e-14 
S  0.13855506940222007  2.2730378853488  -1.548842229442795e-14 
N  2.0315449354143755  0.015710076373044446  1.219321397613211e-15 
C  2.7324072972337135  -1.1540528845523221  -0.028978182001961304 
C  4.117017097208587  -1.143172183204521  -0.03408329235527393 
H  4.597815842124974  -1.9627902603509695  -0.050462074409622665 
C  4.796937233494635  0.05347803611509083  -0.016354477530585724 
H  5.745883733360495  0.06512178033746929  -0.022921334679688602 
C  4.0847365877173605  1.240077082264119  0.012049638943069386 
H  4.539499005817455  2.0741551729251997  0.022038721129189885 
C  2.6917308002540796  1.1919145253984382  0.026257531466605883 
C  1.920467019550107  -2.4008236000290246  -0.013071626599221602 
N  2.5722476408928454  -3.549055863251424  -0.01784460651131959 
H  3.3864926109157674  -3.5285417905852263  -0.08320997666262908 
C  2.0458897847827275  -4.878835825017083  0.05029407998677563 
C  2.6996298427748924  -5.8370896535543455  -0.7227945544336772 
H  3.410500663793221  -5.583899670265761  -1.3017477806852078 
C  2.304210027023868  -7.16159850519238  -0.6406292865650943 
H  2.7427743528583353  -7.819204538174564  -1.1681441086230089 
C  1.2748419430823088  -7.533786779291088  0.2076782793483023 
H  1.0177227146403351  -8.445837920295585  0.2745349062285146 
C  0.620883606898927  -6.5680373749988235  0.9599871471980688 
H  -0.10137902510998109  -6.819531389618575  1.5224040397377623 
C  1.0149839306701296  -5.231192470553929  0.8952443000011815 
H  0.5794560680967462  -4.573704469085465  1.4266341652105812 
C  1.881271028680809  2.4409033848767367  0.06579292776540072 
N  2.550191413009836  3.530074102097193  0.16444326065173712 
C  1.9092419996549908  4.78770859125053  0.22974572011619104 
C  2.1941479327727844  5.601548958987064  1.3239612542394905 
H  2.7458951212985543  5.277074046390145  2.0262790249452647 
C  1.674299122292833  6.885653880911638  1.3902486869222022 
H  1.8415507424485724  7.423118757392929  2.155802585811254 
C  0.9111080019997495  7.392885169562726  0.34801024792700547 
H  0.5669018544121764  8.277544000618258  0.3923057397786576 
C  0.6549335135990118  6.595108256828649  -0.7591821694066307 
H  0.14812482879211086  6.942521314221233  -1.4837569029969186 
C  1.1353243318357829  5.292016190334684  -0.8136473692529372 
H  0.9350627845228374  4.7435822567727435  -1.56343660842992 
S  0.4686295714406806  2.8736333136218437e-15  -1.8698936359513405 
N  -1.8286295714406802  -3.295039167386192e-16  -0.6101063640486596 
N  -1.9315282790270858  -0.015988491710559143  -3.009938815306458 
C  -1.253177050235958  -0.023675777274066546  -1.877070342782715 
C  -3.129538061022408  -0.04743219966100292  -0.591107991235867 
C  -3.9493630217280766  -0.033402671690657096  -1.7045175547608418 
C  -3.2530433108024064  -0.028709026321371744  -2.9167859367083144 
H  -3.565489667372038  -0.08085225637195523  0.2764024852026724 
H  -4.941724109758955  -0.014594157256623446  -1.664867576867413 
H  -3.77654254419398  -0.00764663939850715  -3.751815432292478 
O  0.0  0.0  1.79 
H  -0.7799479569982813  0.24263578966955565  1.870032293142445 
C  0.5735774855227774  -0.1556322990426242  3.059468233393839 
H  1.3213345491191553  0.456962080327498  3.138686919357805 
H  0.9218078765037079  -1.0576332765460363  3.1352997662819324 
C  -0.35805425298462806  0.08817027036050606  4.183278965215751 
H  0.1111624320511224  -0.00817205294049761  5.014497564156503 
H  -1.077629193871375  -0.5444937523304195  4.143579861442836 
H  -0.7122509393424786  0.9781632405020171  4.117888748273069 
