81

Pd  0.0  0.0  0.0 
N  0.45085697459797136  -3.9658744722886166  0.9650462890891841 
H  0.837538152992974  -4.559967184665435  1.4860193069853198 
N  0.021274020435969265  -2.0098216623142444  1.9706458687096525e-15 
N  2.1603127640325424  -0.017391748015428643  1.090794121694216e-14 
O  0.2184132155314884  2.027213410329673  -1.2906342661267442e-14 
C  -0.9042722141007276  -2.9589405506449222  -0.4422347380621279 
C  -1.9022898846107246  -2.8734825464295937  -1.4413676215492695 
H  -2.0750139163665233  -2.056203286471825  -1.8944006336983854 
C  -2.613866640319041  -4.011612156019995  -1.732237768709859 
H  -3.278336661170586  -3.9743498874568317  -2.4101130040821763 
C  -2.397188897889013  -5.212587542285956  -1.0756377553693526 
H  -2.9233142074227656  -5.970970619189479  -1.301982000567582 
C  -1.4180828599382405  -5.324863350664781  -0.08900469323266515 
H  -1.2700662186693925  -6.136438678241694  0.3808933718579621 
C  -0.6756023365577075  -4.1906335050350645  0.16624833747090728 
C  0.8422374765970868  -2.6896508799368237  0.8026760794459157 
C  2.082199171548927  -2.0943397849717833  1.3715485038643287 
H  2.669446457748802  -2.816164541231583  1.7091749336670912 
H  1.8472512003014743  -1.5071696040625964  2.1330693699328678 
C  2.8231674740347152  -1.291699766505327  0.3278013383747655 
H  3.7373062763201874  -1.1019488085553428  0.6573139543899138 
H  2.9048098878708224  -1.8334713985057685  -0.49629570386151745 
C  2.917101217194192  0.9850452981496817  -0.2679490728421314 
H  3.852580792477224  0.8329984817474672  -0.20892856919950695 
C  2.511564300042191  2.314684041643035  -0.6488526178876812 
C  3.473507334693619  3.187870660285026  -1.1532415026880565 
H  4.3648860201532225  2.8724396537015644  -1.2404378856064588 
C  3.1974117894807224  4.486483795721399  -1.5317361319573575 
H  3.87262257851644  5.048883162502907  -1.8917896316119533 
C  1.8931866045558752  4.938045867978922  -1.3638285922033702 
H  1.6736236454247255  5.828307780586512  -1.6121901913644447 
C  0.922976848503064  4.125186328597019  -0.8485509597606404 
H  0.04779798019182935  4.47200183861104  -0.7224130967884869 
C  1.184752701621191  2.776660253639303  -0.497013980363863 
O  1.9785874883750032  2.6757902719660778  -2.9780894676550433 
H  1.35646567860518  2.6141194698677044  -2.867131926328341 
N  -1.908896525326172  2.0011770018868447e-14  -0.09110347467381663 
N  -1.3849992014812635  -0.0900006451198754  -2.3006013402410495 
N  0.603963047843693  0.05967312572060772  -3.0476821009909454 
N  -3.649999282013603  -0.1227088992700684  -1.7184549108102896 
C  -0.09110347467382285  -1.3211653993039363e-14  -1.9088965253261776 
C  -1.505461901792411  -0.11289611278300504  -3.676694151571102 
H  -2.2905398729565607  -0.18925718553852303  -4.169402499136307 
C  -0.2564154407106407  -0.0032198469970908597  -4.156768702846609 
H  -0.0069875783958156384  0.02698865761100612  -5.052148710301773 
C  -2.401884349262508  -0.07531464050375658  -1.338610312481257 
C  -4.536670767853428  -0.07168469527902488  -0.6954990775477954 
H  -5.444478601861679  -0.100461883669419  -0.8950118338859101 
C  -4.156543288537737  0.020465324873707946  0.6230976512722779 
H  -4.790334226384836  0.06484126158802495  1.3027643367466002 
C  -2.816302686359324  0.042904787633095465  0.9042988048681311 
H  -2.529487281079671  0.08902724303412848  1.7868916115474298 
C  2.0709635607290275  0.25167288106789687  -3.1910735900716776 
H  2.4581148322793505  0.2537202065622673  -2.291447672595249 
C  2.354279226893093  1.6053478221998874  -3.81473030418398 
H  3.302672662124625  1.6723645388813595  -4.009609938048082 
H  1.8731936889597371  1.6748012700952226  -4.653849255088327 
C  2.6703264431549116  -0.9317187831018917  -3.9476614794431724 
H  2.3622941032847016  -1.7578935576838344  -3.543219729077846 
H  2.3588389713595537  -0.9146806280912462  -4.866113544707543 
C  4.191604408393603  -0.9027133758742258  -3.9347956786232845 
C  4.9077006911518986  -0.7165652300431238  -5.0833443722463745 
H  4.465965111606932  -0.639280372264147  -5.89876311652573 
C  6.293388175206102  -0.6416618499929797  -5.0397115842008855 
H  6.770812974953403  -0.5156555839823618  -5.8284499701770525 
C  6.97207757581551  -0.7524863958559211  -3.8489640427233844 
H  7.898968698075715  -0.6762238850107978  -3.8194529106741637 
C  6.257366228208886  -0.9751186429007648  -2.7221812010994753 
H  6.7056396065702835  -1.073983559362366  -1.9129315940279066 
C  4.883732426159046  -1.0595462302508558  -2.741402552779084 
H  4.41795800507132  -1.2228490421597669  -1.953539575934116 
O  -0.5239574275124466  -1.6483682336233783  3.5597098000993492 
C  -1.5751389696887093e-16  7.724783534606628e-17  1.9499999999999997 
H  0.14119558270483673  -0.7778830575511184  1.3536046142033236 
H  0.8306182687313943  0.5394210908954975  1.938478353122468 
C  -0.22247591537168232  -0.492943475920705  3.3215307348458314 
C  -0.03546269311194283  0.5019822106337872  4.435202959036639 
H  -0.7253487516636624  0.16606652447836812  4.915847836270034 
H  0.7925850543275232  0.33123836285788777  4.763105195087426 
H  -0.25715411810402156  1.380486578229663  4.334040919713816 
