48

Pd  0.0  0.0  0.0 
P  1.4315531626523692  -1.5629317139593777  3.7340609713497986e-16 
N  1.431553162652369  1.5629317139593781  -4.1344853700365524e-16 
C  0.9458439936136718  -3.069057831930761  0.9071371339969565 
H  0.272586083472645  -3.55510848162648  0.3849113089337703 
H  1.726996184279372  -3.651701796389766  1.0037098304369023 
C  0.37389215359482986  -2.7628689461811193  2.2970299712122872 
H  0.9787336752683492  -2.1714826292073104  2.7717035619626382 
H  0.2745839641475394  -3.5902179233953646  2.7945954678167717 
H  -0.490538396563706  -2.334948539277544  2.2039207380067407 
C  2.786162688535266  -0.885020983415754  1.0238477395595436 
H  3.1192902569836294  -1.5895851688914993  1.6188966717362077 
H  3.5253336384891427  -0.6169524643256805  0.4363632411962621 
C  2.354719943386681  0.33573399132755677  1.8792974337544348 
H  1.476588178124093  0.16029135838913083  2.2765699792247425 
H  2.996963141211527  0.46764622918068055  2.6073665557149157 
C  2.285695314239678  1.564561836361556  1.050069034674767 
C  3.1070907903183644  2.6436509289537584  1.2814677860240655 
H  3.6898482797750423  2.6306471170671126  2.0197755127604258 
C  3.093422857582221  3.73296019934217  0.4576572731871638 
H  3.635692171215255  4.4786434589438056  0.6413391934782885 
C  2.2723762955555307  3.7210895367698433  -0.6454154716281061 
H  2.2679428664603742  4.442051588365457  -1.2489833674488742 
C  1.4462382016394157  2.617766282402239  -0.8494234767463943 
H  0.8818481444502532  2.6046164212685516  -1.6005246713255223 
C  2.205113885690108  -2.17287957123651  -1.5212762665526685 
C  2.6821311940379036  -1.2309901803873708  -2.4095298806418244 
H  2.573690872813995  -0.31590354721846264  -2.223601156318659 
C  3.325690991875049  -1.630309510480778  -3.5801336604160223 
H  3.6785607421072246  -0.9833998560348781  -4.164760317656153 
C  3.4459332305853527  -2.9403982857688957  -3.879593933063402 
H  3.8653610960079012  -3.20956405369248  -4.676680675573354 
C  2.9585216784460875  -3.864871048778908  -3.021770251125248 
H  3.0500417999406846  -4.777240755826172  -3.2310091696468715 
C  2.328457875142843  -3.5066758730077474  -1.8497982378837428 
H  1.9859286104803193  -4.168529980747023  -1.2767727734247905 
Br  -1.654629867976521  1.654629867976521  0.0 
C  -1.35204078  -1.31992066  -0.4819701 
C  -1.63807002  -1.59921746  -1.81393823 
H  -1.15796809  -1.15933936  -2.50351594 
C  -2.63068217  -2.5263265  -2.14228996 
H  -2.83682226  -2.69439953  -3.05388981 
C  -3.31015444  -3.19615732  -1.16198741 
H  -3.99601236  -3.81199015  -1.38686634 
C  -2.99747104  -2.9701089  0.1242356 
H  -3.43865917  -3.46858118  0.80170842 
C  -2.03898543  -2.01594063  0.49125628 
H  -1.86191301  -1.84921651  1.41015686 
