70

Ni  0.0  0.0  0.0 
C  2.68146932615641  -0.8907339210728392  -0.46524247935720336 
C  2.835071955853536  0.477778923762404  -0.36883850811599417 
C  4.058734849868932  1.1246152818221757  -0.6766708775995437 
H  4.1244134047292125  2.070799019202502  -0.6094741325261128 
C  5.134566923424868  0.40231931337051996  -1.0679958876191913 
H  5.964836135149731  0.8358224804079983  -1.229860554023849 
C  5.025109042846239  -0.9944649587881748  -1.234391769266964 
C  6.154433087707535  -1.7130063853558193  -1.7038140418577699 
H  6.979460697908602  -1.2574266043625189  -1.8241764344727744 
C  6.080262379063232  -3.0455432371138786  -1.9857480318020981 
H  6.845723060565906  -3.517884940756374  -2.2910906918964593 
C  4.871688654988191  -3.6981573364068114  -1.8201853521922005 
H  4.7740943515059495  -4.595657981155921  -2.115616519476148 
C  3.8000432911631643  -3.047205932015153  -1.2243269350217458 
H  3.045151073988344  -3.5592794570194926  -0.9611152038270181 
C  3.787842322773804  -1.674853008138225  -0.9960213312867299 
C  1.5877090942024172  -2.1152039879145272  1.3573580858804903 
C  1.7527253491249768  -0.9324723679200616  2.433417443293742 
H  1.820917098712326  -1.3160868167765332  3.3328698989114853 
H  0.9732039662159981  -0.3398656955172629  2.3894543290799257 
H  2.5645556757329633  -0.4191207105303993  2.234271600618416 
C  2.6879904307629827  -3.0664977261594064  1.578267691811512 
H  3.5439952444274407  -2.6238236799148282  1.401098654548342 
H  2.585488006762791  -3.8300599271999483  0.9728871518069522 
H  2.668167137467635  -3.379917480032154  2.5068782856156635 
C  0.23847585995761622  -2.8027787639643935  1.8192761489061067 
H  0.3371202105626401  -3.132549970064962  2.7370139620753715 
H  0.033571596759544464  -3.5527548397155213  1.2227978854930848 
H  -0.4904583825046387  -2.1489565919056606  1.7834440754189282 
C  0.7109123095882615  -2.4418122301140333  -0.9783627417480546 
H  0.9313140885700011  -2.183064266235331  -1.8974630012466174 
H  -0.2604650342445167  -2.410940104587488  -0.8541966523601913 
H  1.032401985976419  -3.352440196366425  -0.8094037376823522 
C  1.679832701560023  2.4330347654885665  1.5075494738150295 
C  0.6154080480891797  3.1084966912003584  2.0868369620255205 
H  -0.24145677227315643  3.082573040099076  1.67716741966361 
C  0.7977394722317304  3.81730030244791  3.2567139480597933 
H  0.06820756957660579  4.293646561128544  3.6368348562579302 
C  2.0250235672340557  3.8415960152248227  3.877692626031119 
H  2.136703172631072  4.310588919288312  4.696997728954633 
C  3.0846117566629547  3.1848163843143715  3.310308518707016 
H  3.938712721648748  3.2214609866745882  3.72475323725011 
C  2.9200716579159014  2.462580286102954  2.1296511321868286 
H  3.653990778673156  1.9923535235593326  1.7524136393859986 
C  1.305230725965024  2.6575212164544295  -1.379174169558765 
C  0.5986543673883683  2.3024580736146167  -2.5223802026504827 
H  0.11170221286080162  1.4874939399260603  -2.5437939833121144 
C  0.6026049119926677  3.1309238204823937  -3.6270163370694872 
H  0.11093252758999594  2.891547546750267  -4.402989800526832 
C  1.3219512630925778  4.304022621245633  -3.59705635030211 
H  1.3348254559782888  4.866611507862753  -4.361626176944845 
C  2.0260645596803464  4.671391839268251  -2.46492433361068 
H  2.5167341264199043  5.4831784818927405  -2.451950007729069 
C  2.0113640445204357  3.849018468903748  -1.3532617433570635 
H  2.486190598439287  4.102012671550834  -0.5695642908152482 
N  1.3820524782004484  -1.4731024904941268  1.3108774495422816e-16 
P  1.3820524782004484  1.4731024904941277  -1.2489187374870494e-16 
Br  -1.5839191898578664  1.5839191898578664  0.0 
C  -1.2937473829822488  -1.2398794889499034  -0.459800567 
C  -1.601562203225019  -1.4938654694550033  -1.7919791134 
H  -1.1309417375171225  -1.0428217585005106  -2.480879663 
C  -2.60218398542082  -2.411889969420291  -2.121542410022 
H  -2.8231586547736818  -2.5626138747145775  -3.032700502 
C  -3.2683208079706407  -3.09759503004543  -1.14306436557 
H  -3.9596020908062854  -3.707191723557817  -1.368328076 
C  -2.9347449854640226  -2.896087320001541  0.14198826503 
H  -3.3668350933519986  -3.405606940434718  0.81710224434 
C  -1.9675509241539992  -1.9516175659140573  0.5112421903 
H  -1.7755298364628027  -1.8022912010877177  1.4301324877 
