71

Pd  0.0  0.0  0.0 
C  0.25061  2.03282  0.0 
C  -0.69173  3.06964  0.05619 
H  -1.75244  2.85494  0.07635 
C  -0.24523  4.4049  0.16626 
H  -0.95515  5.21639  0.25777 
C  1.12826  4.70684  0.18068 
H  1.47667  5.73118  0.2726 
C  2.06482  3.68604  0.10668 
H  3.12575  3.915  0.1234 
C  1.62894  2.36758  0.03933 
C  2.57928  1.2254  0.03203 
C  4.08863  1.17574  -0.00777 
H  4.67205  2.06579  -0.02116 
C  4.67839  -0.04464  -0.0631 
H  5.76993  -0.09086  -0.10067 
C  3.90405  -1.30489  -0.10471 
H  4.41665  -2.26368  -0.15603 
C  2.56652  -1.25762  -0.08807 
C  1.63715  -2.41822  -0.1841 
C  1.71695  -3.84168  0.20726 
H  2.60871  -4.45099  0.29718 
C  0.39715  -4.26517  0.30741 
H  0.09032  -5.28627  0.52987 
N  1.89069  -0.01071  0.0 
N  0.2587  -2.02211  0.0 
N  -0.48956  -3.16902  0.14808 
H  -1.50702  -3.20521  0.21845 
N  0.42728  0.0  -1.84722 
N  -1.78727  0.0  -0.63278 
C  1.50288  0.11608  -2.67606 
C  1.08408  0.11725  -3.99733 
C  -0.28739  -0.01891  -3.98459 
C  -0.63015  -0.13926  -2.65626 
C  -1.9282  -0.43315  -2.01987 
C  -3.21338  -0.09022  -2.82169 
C  -2.88627  -0.24481  0.30181 
H  2.53793  0.20008  -2.3855 
H  1.71217  0.20266  -4.87484 
H  -0.94733  -0.05028  -4.84195 
H  -4.1462  -0.13291  -2.22933 
H  -3.20238  0.88484  -3.35706 
H  -3.32198  -0.90377  -3.56783 
H  -3.87017  -0.31944  -0.18911 
H  -2.71365  -1.14601  0.91312 
H  -3.01433  0.64748  0.92017 
N  0.0  0.0  1.91 
N  0.47208  0.86234  4.02434 
C  1.12978  -0.61272  2.53257 
H  1.76054  -1.37181  2.13801 
C  1.42264  -0.0908  3.72117 
H  2.26499  -0.37335  4.3417 
C  -0.33395  1.1157  2.82807 
C  -1.80734  1.38359  3.07492 
H  -2.15451  2.01148  2.23544 
H  -1.95151  2.03506  3.95709 
H  -2.40487  0.45884  3.18614 
C  0.42153  1.42281  5.35428 
H  -0.34715  2.20958  5.46517 
H  1.41094  1.89367  5.55656 
C  0.17595  0.29608  6.33514 
C  -1.12275  -0.20484  6.51023 
H  -1.94944  0.22091  5.95649 
C  -1.3671  -1.24576  7.40961 
H  -2.37462  -1.60967  7.55533 
C  -0.30863  -1.81436  8.12607 
H  -0.49956  -2.61843  8.82473 
C  0.99525  -1.34737  7.93451 
H  1.81498  -1.80298  8.47499 
C  1.23953  -0.29414  7.04641 
H  2.25689  0.04663  6.90048 
