84

Fe  0.0  0.0  0.0 
N  0.7082979793233887  -1.9059663673365979  0.0047822921424784505 
N  -1.914544761920033  -0.7038042785604284  -0.004799305637327858 
N  -0.7127671455434672  1.9023891006855516  0.004790832561849911 
N  1.919013928140112  0.7073815452114749  -0.004773819067000504 
C  -2.2966041717572745  -2.0242200737755667  -0.07846975494500766 
C  -0.030222405994393853  -3.0439687051984023  -0.07104072211533931 
C  -3.0567050393499167  0.03878113391660886  -0.07895775652190001 
C  3.068634395652839  -0.008137334962790545  -0.06296765714272828 
C  2.2979220679355037  2.027557722914414  -0.06005402730154166 
C  3.117839633981915  -1.410048617653937  -0.04455298950401792 
C  4.499925720442867  -2.0351368693959646  -0.09390050357659943 
C  2.0317385563938197  -2.2850607992599645  -0.057085798568196844 
C  2.1014921401969326  -3.706007786780906  -0.15251763917595246 
H  2.8803736033066194  -4.212357156696413  -0.19288126153919702 
C  4.195489918036025  0.8618052022709786  -0.12560122311009309 
H  5.088532606072305  0.6017537894670599  -0.14914756133118282 
C  3.180551177814596  7.011152556067842  0.11241931371237476 
C  -4.473007640852728  2.0783655110719446  -0.017893532624034734 
C  -1.423870543468285  -3.118581995609034  -0.08532308220235096 
C  -2.0287133532610726  2.284910608594607  -0.03832997889428391 
N  4.209273112638289  9.375731359560334  0.30783285696519835 
C  0.8485115349555797  -4.1847649835339125  -0.17618553824232852 
H  0.595676453345518  -5.076521464336172  -0.2449188667984471 
C  3.7394054072113496  2.1238816744356526  -0.14271459198321304 
H  4.246150462175541  2.901573256491305  -0.1982327193752321 
C  -2.0558179952610542  -4.467334481737924  -0.2374155847584027 
C  7.039456834640797  -3.1226242212838797  -0.27505458027496366 
C  -3.717629018788567  -2.0991624333835546  -0.20219738668535772 
H  -4.2257608513448615  -2.8739258268566275  -0.2794914671642072 
C  0.0349820065446074  3.0613930043909474  -0.04929952468618236 
C  -6.927755198385434  3.3493114181940538  0.04073231454914159 
C  2.046705874494024  4.4856268491588  -0.013102086373328931 
C  8.358733404978754  -3.7120393283206443  -0.36872919025098166 
C  -3.1157611688518188  1.4333155672098417  -0.0544182388457703 
C  3.755385449667433  8.347596882163737  0.21186569700260563 
C  -4.1780916565104675  -0.838889157376489  -0.1878719182948479 
H  -5.071129825358005  -0.5824746392820013  -0.238102425875469 
C  4.955203933639975  -2.607774657825374  -1.2643761213708047 
H  4.396732077055518  -2.6186914671289245  -2.007689419165037 
C  -2.085784608147492  -5.090089357803429  -1.4622947528597916 
H  -1.683089513718655  -4.684598048132923  -2.1954872437546786 
N  -9.185999848689193  4.560890974140867  0.2031602031218161 
N  9.3946700930947  -4.145609510356768  -0.4702955993857363 
C  -6.4393291244834545  2.8895763001220383  -1.1465104245501592 
H  -6.9239698350783145  3.0104307183963983  -1.930615577713735 
C  -4.999116414925278  2.525561594679983  1.1540620640815373 
H  -4.521605904057078  2.3950167988118114  1.9410162230273604 
C  -3.270075810989282  -6.946367882274833  -0.5158778011636498 
C  -5.2290002805933415  2.247970742909008  -1.1767433304803026 
H  -4.906521204792902  1.9184421443862607  -1.984880100109385 
C  6.19930685612626  -3.155499409291396  -1.3642416053608746 
H  6.477274852254328  -3.5484372767578294  -2.160304916561358 
C  1.4374229400186072  3.1342676539879197  -0.04813180781282871 
C  2.8589554201981873  6.346747072400482  1.2460000263022941 
H  3.0172239528896307  6.742578152288043  2.0732039901194086 
C  2.30588106563914  5.101259370571778  1.1866225649002844 
H  2.0991288782532864  4.658310046923415  1.9776597130106772 
C  -6.209815227813912  3.163003085674009  1.2129016768382959 
H  -6.545874100651544  3.4663092327473  2.024596838296498 
C  -2.710950547372591  -6.317309395070983  -1.614991375487236 
H  -2.7543303827034964  -6.717029027532859  -2.453726444094246 
C  6.590854369531034  -2.5862326930947983  0.910194425961459 
H  7.1372501596139  -2.598240723951779  1.662105416554534 
C  -8.198339049765679  4.0408798276326126  0.12702641445385254 
C  -0.83957823532701  4.208893119631133  -0.14622098186267843 
H  -0.5864310056799319  5.101366510669654  -0.20819893286313132 
C  5.333871816044876  -2.0311561424405937  0.9820667651835013 
H  5.048191690363627  -1.6466362919286206  1.7795997866647408 
C  -2.5799066511226103  -5.110046555428301  0.8678017337495194 
H  -2.5196835247242086  -4.714063180298218  1.7076565912501418 
C  -2.096891608983495  3.722784790064702  -0.12647680928739952 
H  -2.876533853895036  4.228289852666762  -0.16434264656827027 
C  2.9468624530593317  6.4397442842171655  -1.1135449218111915 
H  3.1676308308688506  6.887685518388345  -1.8975965681257398 
C  -3.199612510652569  -6.350840068851798  0.7280988894319721 
H  -3.565632048911721  -6.776323181008173  1.4699701713146733 
C  -3.924721968620447  -8.227295193408121  -0.6791302495115906 
N  -4.42715918012833  -9.238369213032724  -0.7842183807744896 
C  2.379843922070625  5.192544183324486  -1.1540100160122346 
H  2.212869657972904  4.805235764897995  -1.983048232347884 
Br  0.0  0.0  2.3 
O  0.0  0.0  -1.79 
H  -5.551115123125783e-17  -2.7755575615628914e-17  -2.6098609699211206 
