58

Pd  0.0  0.0  0.0 
C  2.2355770410181552  -0.4549634097392712  1.4574064047854929 
H  1.6130608822276487  -0.5106997144112846  2.198171304322629 
H  3.090080298988578  -0.8146805443769846  1.7423929398463576 
C  2.392195526393042  0.981260855599887  1.0047064603522304 
C  3.328229349408364  1.8446576274904094  1.6251740956567784 
H  3.816350159772541  1.5392730983074017  2.3553689078987583 
C  3.5261086380226088  3.1222772722034957  1.1680536951267453 
C  2.81470139639457  3.5497915564970555  0.004079892464395746 
C  2.7694523128369255  -1.3558370041932557  -2.5125601304584126 
H  1.9640768351618698  -1.0012871445495823  -2.814803851627858 
C  1.847906112413948  2.647716636464134  -0.5771699742198511 
C  1.1810824377916025  3.027537728871857  -1.7489338346991588 
H  0.5473848969238555  2.453974230378006  -2.116895517342467 
C  1.4402334799258556  4.2309127696241084  -2.371422010213578 
H  1.0203045063855631  4.4485191652289195  -3.1726824446375557 
C  2.3498876218475058  5.126042625974584  -1.77382999022435 
H  2.4870797674715526  5.959348015698993  -2.1652120192386373 
C  3.0344102021288286  4.810352391551488  -0.6439688956755905 
H  3.6489375101095822  5.412346793350034  -0.28991569635497993 
C  1.2027996679096518  -3.061091819176044  0.6332049602819618 
C  1.5841168211224192  -4.207163423881094  -0.04981412843702504 
H  2.0471434057233924  -4.133390914437118  -0.8523177600818443 
C  1.2776804183775268  -5.471014487472493  0.4617499048292558 
H  1.5373991004118854  -6.233104342952265  -0.0039047938232570443 
C  0.5924937354262811  -5.595889290393137  1.649701491848631 
H  0.3987779364543662  -6.438305430463574  1.9955080796654625 
C  0.19555440400057722  -4.458009647652648  2.3216062066736773 
H  -0.271973773408166  -4.536043713427972  3.121061100903138 
C  0.48419161745004313  -3.2067721903516055  1.8200654361883966 
H  0.19685973239340715  -2.45078540815441  2.279596939975626 
C  2.978594830726622  -1.626359304127899  -1.1626598258251768 
C  4.197977815743722  -2.1403810648104162  -0.7385344134815257 
H  4.338329452003533  -2.318630893222274  0.163175177723073 
C  5.19736184101186  -2.384579027434499  -1.6480507767698225 
H  6.018787027412611  -2.703229178414044  -1.3511200366515532 
C  5.002589958953762  -2.1667927643755323  -2.9941046232345108 
H  5.669396702537143  -2.3761213704360142  -3.60796752437491 
C  3.8247959054630574  -1.6408757037216546  -3.4094293189547997 
H  3.707411120319608  -1.4615861938141628  -4.314149360654969 
C  4.502388096197347  4.048887894633733  1.8693158101347676 
H  4.502915404634966  4.9024175713385585  1.430833138949256 
H  5.384361440948837  3.670655433324275  1.835227625089992 
H  4.23613729785689  4.159248746302259  2.784928836910856 
N  1.5904225617740713  1.400948277060934  4.8277516686117754e-17 
P  1.5904225617740713  -1.400948277060934  -5.551115123125783e-17 
Br  -1.654629867976521  1.654629867976521  0.0 
C  -1.35204078  -1.31992066  -0.4819701 
C  -1.63807002  -1.59921746  -1.81393823 
H  -1.15796809  -1.15933936  -2.50351594 
C  -2.63068217  -2.5263265  -2.14228996 
H  -2.83682226  -2.69439953  -3.05388981 
C  -3.31015444  -3.19615732  -1.16198741 
H  -3.99601236  -3.81199015  -1.38686634 
C  -2.99747104  -2.9701089  0.1242356 
H  -3.43865917  -3.46858118  0.80170842 
C  -2.03898543  -2.01594063  0.49125628 
H  -1.86191301  -1.84921651  1.41015686 
