57

Pd  0.0  0.0  0.0 
P  1.5785958048214876  1.4142613920347247  0.0 
N  2.9137887125405157  0.45371381387765664  -0.3628504778465076 
H  3.6429204829514332  0.731184005887511  -0.47755376430104535 
N  1.5785958048214876  -1.4142613920347251  0.0 
N  3.941475362645834  -1.6081506310002944  -0.27264449055372714 
C  1.3566621958158196  2.536233853375194  -1.397214203043822 
C  1.3251268237810079  2.0236934389351724  -2.691992961703496 
H  1.4240072541317765  1.11225383359781  -2.8249388390977312 
C  1.088351103334782  2.8642135165495173  -3.7653448831786314 
H  1.0783227230733763  2.514712304974436  -4.614088645863763 
C  0.8696596031730721  4.209291088993984  -3.562798711000725 
H  0.7481725890572409  4.707993729094536  -4.278940479198875 
C  0.8998327911035561  4.721888702902543  -2.2939683854861626 
H  0.792297050942424  5.675382577935011  -2.148969541133626 
C  1.134036288138395  3.894588928907673  -1.2086993654156941 
H  1.1095104366373825  4.272882282606792  -0.39261976687444716 
C  2.0420797729249096  2.4463328027518187  1.4039396228084706 
C  3.2803764243462523  3.088640794835997  1.388768057842938 
H  3.781322129046651  2.958081772267793  0.6670432400846298 
C  3.65895047787793  3.881107432412483  2.4540825204880443 
H  4.501460704809952  4.265653975974387  2.4358333191476023 
C  2.8147381488113465  4.043370063841486  3.531730399850192 
H  3.036304985975871  4.621652886667719  4.222567590143991 
C  1.5942336596638689  3.4086866594472003  3.5527470160711982 
H  0.9991874245632253  3.5204618842326045  4.278959496834756 
C  1.2047558914314718  2.593768115045826  2.501484986868453 
H  0.39544850097882933  2.201196382460224  2.496577591074245 
C  2.8201373295803442  -0.9021860189256098  -0.20659388798956624 
C  1.5079219898551304  -2.7635105129872866  0.11598328106602547 
H  0.6369218449189858  -3.1279819592864744  0.2223964492070435 
C  2.61133538328944  -3.5593370952152785  0.03675718556010106 
H  2.55694763517508  -4.445366429719823  0.10487018910921306 
C  3.856736462508807  -2.9429410139040293  -0.1390845695022786 
C  5.134592451845522  -3.690700986675761  -0.17408847837970648 
C  6.336412840401202  -3.0100579383527943  -0.34367398607878613 
H  6.306738442180518  -2.109374449307423  -0.44597223949153336 
C  7.541749900986272  -3.6898725294990324  -0.3846670592115059 
H  8.302946242320822  -3.2356205407095198  -0.49531330008605606 
C  7.561750260115842  -5.0702517019738655  -0.2532888424768268 
H  8.362108738208441  -5.464435830975608  -0.2806566883629569 
C  6.374951697028334  -5.758374725398736  -0.08174253594088343 
H  6.402786650436162  -6.724065200081837  -0.004764990675369674 
C  5.166121713574958  -5.086796585495245  -0.037571356333938905 
H  4.354036243745185  -5.582019313729634  0.10145489705537078 
Br  -1.654629867976521  1.654629867976521  0.0 
C  -1.352040782177733  -1.3199206589279684  -0.4819701001757076 
C  -1.6380700204479186  -1.599217458033982  -1.8139382277462257 
H  -1.1579680913617836  -1.159339363685303  -2.503515938957912 
C  -2.63068216563725  -2.52632649780156  -2.142289956238523 
H  -2.8368222554424674  -2.694399528648736  -3.0538898079700485 
C  -3.3101544432602585  -3.1961573187854975  -1.1619874135498987 
H  -3.9960123560788676  -3.811990145619169  -1.3868663427944008 
C  -2.9974710358883443  -2.9701089012107795  0.12423560353005347 
H  -3.438659168087169  -3.468581175155742  0.8017084178296768 
C  -2.0389854250767776  -2.015940632791841  0.4912562833419403 
H  -1.8619130127668426  -1.8492165108145995  1.4101568590026907 
