65

Cr  0.0  0.0  0.0 
N  0.21195  1.93025  0.0 
N  2.80336  0.84195  -0.80297 
N  2.8162  -0.9011  0.67151 
C  1.95457  0.01115  0.0 
N  0.23348  -1.9414  0.0 
C  1.08934  4.16201  -0.82231 
H  1.74332  4.72866  -1.47999 
C  1.3345  2.6981  -0.59032 
C  4.14257  0.47659  -0.55021 
H  5.01118  0.95572  -0.97996 
C  2.33562  2.00115  -1.50142 
H  1.86615  1.73548  -2.45824 
H  3.19156  2.65672  -1.76013 
C  -0.77131  -2.68942  -0.75271 
H  -1.5121  -2.19305  -1.38259 
C  2.31937  -1.96304  1.47553 
H  1.84353  -1.51226  2.34901 
H  3.14082  -2.61968  1.84085 
C  0.10748  4.77959  -0.16412 
H  -0.03069  5.84927  -0.28035 
C  4.15112  -0.59894  0.32136 
H  5.02707  -1.11674  0.68753 
C  -0.64845  -4.17445  -0.81975 
H  -1.37275  -4.73229  -1.40597 
C  1.2777  -2.68662  0.67324 
C  -0.77271  2.67045  0.72605 
H  -1.50963  2.14899  1.31757 
C  0.33357  -4.79821  -0.17581 
H  0.3959  -5.87977  -0.2295 
C  1.32559  -4.03543  0.59689 
H  2.10291  -4.59133  1.10749 
C  -0.8138  4.01268  0.69614 
H  -1.56937  4.5422  1.26698 
O  0.46819  0.0  -1.86966 
O  -1.82819  0.0  -0.61035 
F  -6.74798  -0.43358  -4.15065 
C  -1.54233  0.04495  -3.09135 
C  -2.38705  0.05449  -1.87901 
C  -0.2181  0.05077  -3.03924 
C  -3.89218  -0.04702  -1.87915 
C  -4.57634  0.01519  -0.65316 
C  -4.63919  -0.2027  -3.06199 
C  -6.70981  -0.20144  -1.77974 
C  -6.0346  -0.27938  -3.01233 
C  -5.97331  -0.06136  -0.60662 
C  0.55876  0.15644  -4.32003 
H  -4.15693  -0.27305  -4.02527 
H  -4.05481  0.13578  0.2961 
H  -6.48773  -0.00753  0.34753 
H  -2.02578  0.08455  -4.05821 
H  -7.7745  -0.2699  -1.74779 
H  0.93994  1.19465  -4.40045 
H  1.40937  -0.55216  -4.32165 
H  -0.07497  -0.01633  -5.21596 
O  0.0  0.0  1.85 
S  -0.97714  0.29928  3.18895 
C  -0.09987  1.43865  4.28475 
H  0.98511  1.17065  4.25768 
H  -0.46889  1.42257  5.32279 
H  -0.16038  2.4428  3.82259 
C  -0.2654  -1.18104  4.06424 
H  -0.50564  -2.12637  3.52822 
H  -0.68276  -1.27475  5.08775 
H  0.83725  -1.12287  4.18685 
