71

Pd  0.0  0.0  0.0 
N  2.02237  -0.03159  0.0 
O  0.44456  2.04924  0.0 
O  -0.06693  -2.01765  0.0 
C  2.84643  -1.17719  0.28092 
H  3.93575  -1.04774  0.39288 
C  1.76641  2.34306  -0.09594 
C  0.92  -2.88171  0.34668 
C  2.27874  -2.52163  0.46796 
C  2.63359  1.25663  -0.1348 
C  4.02893  1.49278  -0.24015 
H  4.76297  0.70748  -0.2754 
C  1.5329  -5.17151  0.92925 
H  1.24988  -6.19486  1.12422 
C  0.56411  -4.21655  0.58945 
H  -0.47143  -4.52033  0.52213 
C  3.24056  -3.49589  0.78375 
H  4.29261  -3.23638  0.85544 
C  4.52132  2.79802  -0.30299 
H  5.59494  2.96873  -0.36537 
C  2.87288  -4.80788  1.01385 
H  3.6355  -5.53642  1.26311 
C  2.27816  3.65953  -0.164 
H  1.62479  4.51682  -0.11755 
C  -0.52283  3.02947  0.12521 
H  -0.34307  3.62011  1.05049 
H  -1.52783  2.57293  0.18862 
H  -0.4968  3.70728  -0.75599 
C  3.65298  3.87692  -0.2493 
H  4.03848  4.88558  -0.27396 
O  -3.00143  0.08467  -2.54705 
N  0.48873  0.0  -1.88092 
N  -1.84874  0.0  -0.59908 
C  1.79862  -0.07248  -2.59715 
H  2.79046  -0.22189  -2.1321 
C  1.80919  0.07383  -4.0735 
H  2.75706  0.08126  -4.59328 
C  0.66881  0.17841  -4.75039 
H  0.69455  0.29  -5.82757 
C  -0.62007  0.17064  -4.03775 
H  -1.52873  0.23912  -4.62689 
C  -0.67374  0.08305  -2.68876 
C  -1.9277  0.06817  -1.95589 
C  -3.11187  -0.03629  0.12738 
C  -4.09443  0.96741  -0.06826 
H  -3.95598  1.74085  -0.8129 
C  -5.25146  1.01157  0.73121 
H  -5.97789  1.80058  0.57813 
C  -5.42651  0.07992  1.76548 
C  -4.5209  -0.96807  1.89185 
H  -4.64984  -1.71088  2.66973 
C  -3.43385  -1.06922  1.02551 
H  -2.80615  -1.93166  1.1165 
C  -6.57174  0.16257  2.73141 
H  -7.27259  0.98146  2.47171 
H  -6.18007  0.34896  3.7579 
H  -7.11823  -0.80231  2.73392 
N  0.0  0.0  1.91 
C  -1.25088  -0.37179  2.45298 
N  0.06207  0.24961  4.24634 
C  2.14775  0.71358  3.12951 
C  -1.23125  -0.29395  3.94328 
C  0.88481  -0.12203  3.08926 
H  -1.34789  -1.3135  4.38052 
H  -1.28247  -1.45371  2.23846 
H  -1.92312  0.43172  2.12894 
H  0.40896  -0.14163  5.15074 
H  2.11453  1.48424  3.93181 
H  -2.06789  0.3476  4.3097 
H  2.98685  0.02116  3.3418 
H  2.32133  1.25676  2.21682 
