6

Ru 0.0 0.0 0.0
N 2.409107699585229 -0.0012161854447443551 0.005823833644482858
O 1.547065 1.068172 0.0
O 1.547065 -1.068172 0.0
Cl -1.583919 1.583919 0.0
Cl -1.583919 -1.583919 0.0
6

Ru 0.0 0.0 0.0
N 2.4082565041022304 0.00017393815246808178 0.0031492592884312678
O 1.547065 1.068172 0.0
O 1.547065 -1.068172 0.0
Cl -1.583919 1.583919 0.0
Cl -1.583919 -1.583919 0.0
6

Ru 0.0 0.0 0.0
N 2.408495439555894 -6.283680326889628e-05 0.0028845819637552225
O 1.547065 1.068172 0.0
O 1.547065 -1.068172 0.0
Cl -1.583919 1.583919 0.0
Cl -1.583919 -1.583919 0.0
6

Ru 0.0 0.0 0.0
N 2.4081904991009973 8.084150891957552e-06 0.0007775623939967661
O 1.547065 1.068172 0.0
O 1.547065 -1.068172 0.0
Cl -1.583919 1.583919 0.0
Cl -1.583919 -1.583919 0.0
6

Ru 0.0 0.0 0.0
N 2.4084447047655066 1.0816978754675427e-05 0.00034605584751539625
O 1.547065 1.068172 0.0
O 1.547065 -1.068172 0.0
Cl -1.583919 1.583919 0.0
Cl -1.583919 -1.583919 0.0
6

Ru 0.0 0.0 0.0
N 2.4084120615221227 -2.3375698648637392e-06 0.0003266328292871023
O 1.547065 1.068172 0.0
O 1.547065 -1.068172 0.0
Cl -1.583919 1.583919 0.0
Cl -1.583919 -1.583919 0.0
6

Ru 0.0 0.0 0.0
N 2.4084237378844717 -1.202954006545427e-05 1.1734752602492377e-05
O 1.547065 1.068172 0.0
O 1.547065 -1.068172 0.0
Cl -1.583919 1.583919 0.0
Cl -1.583919 -1.583919 0.0
6

Ru 0.0 0.0 0.0
N 2.408419532073805 6.645323638433559e-08 2.487128917221616e-06
O 1.547065 1.068172 0.0
O 1.547065 -1.068172 0.0
Cl -1.583919 1.583919 0.0
Cl -1.583919 -1.583919 0.0
