102

Pd  0.0  0.0  0.0 
N  1.5736512431285403  -1.41976116477385  -1.2055560816835568e-16 
C  2.3782979240162856  -2.3893705498983375  -0.6006280955923281 
C  2.440564911720921  -2.8546497436035843  -1.915734594757783 
H  1.8525939219100007  -2.5184633223641884  -2.582816850041968 
C  3.3866841777178034  -3.821430571996391  -2.2172076687820996 
C  4.264586601328901  -4.323293503367314  -1.2256361722506603 
C  4.2131677277667094  -3.839537888661933  0.07180141957510514 
H  4.808762131876019  -4.157786923225414  0.7394784131828532 
C  3.2566346081865096  -2.871316575030663  0.3603622259510558 
N  2.9796956560843473  -2.1874302256286065  1.5403710597782065 
C  1.9694347889780208  -1.3173503800534763  1.270165688407542 
C  1.4672868488633142  -0.3070248967328472  2.2147204639454943 
C  1.1930754054541348  -0.6465505521460115  3.5371346666897425 
H  1.3121570786493868  -1.5436371900967512  3.8271798340676293 
C  0.7458486626826697  0.3162875391591168  4.434967502178621 
H  0.5422957658253573  0.075502987868441  5.330544002563029 
C  0.599178109389106  1.6218241188240814  4.020425431993618 
H  0.3045181523790894  2.2843627121725145  4.6341474309954025 
C  0.881891153978348  1.9725156980512872  2.703931949032802 
H  0.7873483833847421  2.878644029294184  2.4331312624615697 
C  1.3003296363492671  1.0250879028881064  1.7756393230665233 
P  1.5736512431285399  1.4197611647738504  4.817400832562993e-17 
C  3.4726346499530925  -4.373412190062998  -3.621805799792956 
H  3.2017182917304825  -5.31516022006562  -3.6190882947627663 
H  4.394413975683712  -4.300031552118452  -3.945952674882762 
H  2.877326233068111  -3.863259762337332  -4.2098100508588185 
C  5.260241882801942  -5.403741763300063  -1.5723171900222659 
H  5.805171050482452  -5.611273971752132  -0.7859130797417482 
H  5.840175249117552  -5.092426049807925  -2.298657886367184 
H  4.781485398282893  -6.208852769546015  -1.8596091428378627 
C  1.2967296757200195  3.2350214909080144  -0.14940781059670563 
H  1.8270473913332956  3.6634189672517783  0.5824891307611781 
C  1.838515781549856  3.8077825652183757  -1.4707734894625675 
H  2.772687580132815  3.5076481478441153  -1.6068191150435043 
H  1.2928062229484574  3.4748238206570687  -2.2275772500711093 
C  1.787428130120247  5.335918524864509  -1.4298870527408611 
H  2.413945579459878  5.6632760562096  -0.7362890767168305 
H  2.0870504895904647  5.6934515928160145  -2.3024628529019218 
C  0.3935947372214865  5.863132276424777  -1.1291791828635995 
H  -0.20050710530233884  5.672469982852942  -1.8972686376276482 
H  0.4343728087045442  6.845626399105045  -1.0105810050325128 
C  -0.1876873627666087  5.2291017103447555  0.12652550435777246 
H  -1.1224135143776541  5.53393638658337  0.24595155535546542 
H  0.3330073714252295  5.524613501630316  0.9141812381629093 
C  -0.1586030101193756  3.696487423527998  0.04136707391039373 
H  -0.711604136291375  3.3908177512143967  -0.7200235786985176 
H  -0.530282527004704  3.3068559603458683  0.8715425310436784 
C  3.387137096479527  1.109918044033138  -0.24874488984816404 
H  3.5722570057784147  0.2485390809067585  0.22274275693009546 
C  3.7482381667657343  0.8491274799674015  -1.7192603058613678 
H  3.1453903388792095  0.1596020518254528  -2.093571179812649 
H  3.6303691228599924  1.6800259432225968  -2.2439994336657474 
C  5.1952910151805245  0.37736622418837973  -1.8226659703120125 
H  5.288488578148389  -0.49859141985529204  -1.3701521030125479 
H  5.434173823026877  0.25684316774370053  -2.7754445684032696 
C  6.145506801118374  1.3756397473451838  -1.1875745649862206 
H  6.125646331224438  2.2191046516629114  -1.7035015432688891 
H  7.067066237704534  1.016816758211552  -1.2215604048055506 
C  5.771403906069358  1.6646218593931308  0.26697685481038214 
H  6.372194377115166  2.3649283332347184  0.6260041972178104 
H  5.903491934522265  0.845001173272055  0.8078557540307562 
C  4.3160715412283  2.1298189723915013  0.4012729973619302 
H  4.0845202136950345  2.230604688010644  1.3584659780323574 
H  4.205002204294164  3.0109160794526453  -0.03803270522056549 
C  3.8376476899579512  -2.4305313144339027  2.741343656548788 
H  3.7340528144375904  -1.6848414151270452  3.384178624357518 
H  4.78860203579171  -2.4762128675071837  2.4707519200734676 
C  3.4250510684224853  -3.740262155885814  3.4002444084433443 
H  2.5448801991904793  -3.622292719085027  3.838443487557264 
H  3.3281473152277496  -4.43955386750137  2.7052047659174128 
C  4.442282996728013  -4.1888586704280675  4.425348545190687 
H  4.393512276810853  -3.593463532165747  5.215320479003755 
H  5.350797009640793  -4.109836396975566  4.039898705860659 
C  4.207207678206819  -5.639580859556323  4.871429451073374 
H  3.3032604200918567  -5.706256711346561  5.268351893541052 
H  4.226813143194193  -6.222975542796537  4.071893679947575 
C  5.19971218817324  -6.156104003163233  5.861633475411144 
H  5.294539164748251  -5.494626542516115  6.592404748498333 
H  6.079754219570445  -6.2392162180397355  5.416868006076274 
C  4.835461019054126  -7.481769183123128  6.457973903721391 
H  3.9904177728473753  -7.380667009348103  6.963096861523074 
H  5.540161832026959  -7.744353827111037  7.1032594443444745 
C  4.659210767666407  -8.636461983345718  5.4152799332775805 
H  4.346939849041782  -9.447058186815838  5.89207470915201 
H  3.951325940876724  -8.375927243998259  4.773429497744426 
C  5.914917281013972  -8.988830855246569  4.632155217506276 
H  6.09095265690036  -8.291861354635092  3.9672207082093633 
H  5.7885447298017425  -9.848223970281062  4.182557361493363 
H  6.675393182537805  -9.050496646065648  5.2498559083300895 
Br  -1.654629867976521  1.654629867976521  0.0 
C  -1.3788582233137676  -1.3788582233137676  0.0 
C  -2.618821778986925  -1.1522995256591737  0.5874691967409313 
H  -2.8106553971707884  -0.30966242518610043  0.9782000501948407 
C  -3.5854032518711887  -2.161278806785389  0.6049610958635797 
H  -4.421117162155692  -2.007227978208148  1.0287619599160838 
C  -3.3399450833386255  -3.3715361338635086  0.016423527177974573 
H  -3.9908757182151104  -4.061238805801311  0.045080339651694 
C  -2.164680252095028  -3.57422256025893  -0.6007549227026177 
H  -2.0132444416912625  -4.3986257169530365  -1.0474288760065327 
C  -1.1561711193052586  -2.601214672555715  -0.5998012209931929 
H  -0.3196784027493984  -2.7832859823079534  -1.0129111498427692 
