74

Pd  0.0  0.0  0.0 
O  6.620932971934002  1.3138773295936694  0.0872857766717746 
H  7.36952590968811  1.3447533261648017  0.4227019456028707 
O  6.67553672151152  -0.810569218652016  0.7615557850356849 
N  0.21496699245098727  2.0333077938478974  4.58046176897771e-15 
N  1.869501387067869  0.015980743756675075  7.436537188319587e-15 
C  -0.6946150025060809  3.029976169720999  0.006077251384864163 
H  -1.5994404731498897  2.8144141901768664  -7.991104805722453e-05 
C  -0.32626651091356895  4.352020227190243  0.021925243427413272 
H  -0.9746370456872422  5.0184749994593325  0.03111361417845148 
C  1.0084300690092685  4.6824979490993925  0.02372103406750351 
H  1.27200765073579  5.574800228263832  0.02091372055702293 
C  1.9531535102612059  3.6749356983696764  0.028432769795121705 
H  2.861419478468923  3.879172574012146  0.037148251623521776 
C  1.531742339434715  2.3627129845124974  0.019913712338558195 
C  2.469653420837676  1.2192155696425693  0.02988595217334812 
C  3.8525569846831464  1.292306470205235  0.10008269966519745 
H  4.278195196238148  2.1195528458514166  0.12632020801713773 
C  4.594669290297992  0.12604325790883822  0.12920821252088355 
C  3.9478691290615604  -1.103900356388717  0.06885419796348903 
H  4.442215757357276  -1.8916964802497378  0.07493188849597651 
C  2.571034436103939  -1.1494822639906597  -0.001771632776119731 
C  6.071592359737553  0.15334102630410268  0.35030642327317185 
C  0.315531620481144  -2.0492885376045726  -1.2016998957297297e-14 
C  1.6887661315909406  -2.3203473277344226  -0.03395938442290229 
C  2.1624728835677898  -3.6299126784655282  -0.04896555968720156 
H  3.0766120647216875  -3.7948016801268727  -0.0988806336670032 
C  -0.08736785239868894  -4.428314955376386  0.05880942353884292 
H  -0.6868709502620824  -5.138352326376583  0.09703058829508504 
C  -0.5677711772847276  -3.13546968491327  0.052670035980085336 
H  -1.4852466594245237  -2.9840832755711704  0.08391671162495214 
C  1.2674433886481808  -4.685073854956377  0.009391829308521522 
H  1.5779430416746234  -5.56242264898118  0.015732104829756576 
N  0.44781865986514063  -7.99343524302993e-16  -1.8584812005712057 
N  1.7665503089379002  -0.002578726383126172  -2.3769850751026658 
C  -1.8078186598651402  -4.937354076744795e-16  -0.6215187994287942 
C  -3.0285332439847013  -0.02745725714719101  0.025885597488452095 
C  -4.226107024984186  -0.016780043701691186  -0.6642452931226821 
C  -4.258393815252799  0.022958455598781912  -2.057653910451974 
C  -3.038962128124013  0.08475637157559321  -2.7548197716408582 
C  -1.8479059599357976  0.05915708526035779  -2.024070751278197 
C  -0.5630860783679205  0.09553856641554366  -2.6971515783390334 
C  -0.36156546349942187  0.2449439753658949  -4.172043667801657 
C  2.2706402335911067  -1.2361086581990561  -2.8271934104068963 
C  1.488119866931087  -2.3225826093473647  -3.1472440458358877 
C  2.1146613352966357  -3.4933764006781614  -3.622587339256171 
C  3.4821303859855544  -3.576910792070426  -3.788247415504836 
C  4.250749353160308  -2.4601231902618537  -3.4661858907212664 
C  3.655228690563684  -1.294577004732833  -3.018662774201852 
H  -3.1922394908562275  0.008991968259686088  1.0494699998229586 
H  -5.271487580585895  -0.14664177855283791  -0.19507947617584231 
H  -5.105427683670197  0.012387166005951827  -2.550277634596695 
H  -3.0129648831508535  0.05515896764398158  -3.8531380574461895 
H  0.16500302827888502  0.867515196112213  -4.395943374288317 
H  -1.2359927651437985  0.5857929267191291  -4.565331979985416 
H  -0.5028490855311156  -0.5670012113998499  -4.79908330118505 
H  2.416597795646143  0.3876089375991737  -1.5835862460763415 
H  0.3856842900528848  -2.3927118658904694  -3.041610972369352 
H  1.5718496623524587  -4.21203399090394  -3.8632354760170315 
H  3.972689325882829  -4.521295346787373  -4.082888551972599 
H  5.296733570670677  -2.659680618621323  -3.7262456329072062 
H  4.219642150745089  -0.42363307518736393  -2.835899381931858 
N  0.0  0.0  1.91 
N  0.17772421983267161  0.02311532650607477  4.09776568292068 
C  0.723823587249685  0.2799542521855586  5.423634057670808 
C  -1.05765391264175  -0.39130989953129003  3.8290319079166997 
C  -1.1712751299303223  -0.42364789973765316  2.477744561448704 
C  0.7901217601546127  0.25276761742386566  2.9342936472086705 
H  0.08505278014983797  0.020201376856119224  6.089216531715234 
H  0.9149188229739937  1.2182501508261971  5.514792806442533 
H  1.532722592957913  -0.22299244059465723  5.540082813721199 
H  -1.7371617218163475  -0.6214707658630668  4.465016414709236 
H  -1.953253340230445  -0.7012587020549335  1.9961691457010002 
H  1.694980341300151  0.566390983983786  2.85241469951816 
