57

Fe  0.0  0.0  0.0 
O  1.2934800220722389  1.3240126255062674  -7.103885081772163e-15 
N  1.2339823743519511  -2.633241541912695  0.1707753329992493 
C  2.4215425119301117  0.7288897317961656  -0.21879586458112876 
C  2.487592189660062  -0.6484248155652772  -0.2770593840278084 
C  1.2934800220722384  -1.3240126255062674  -6.661338147750939e-16 
C  3.609645545339532  1.6265948571876407  -0.39056760221347886 
C  2.3763310871231873  -3.499445668600285  0.009109661506148323 
C  3.0814911149659845  -3.9136708047014537  1.1279157178692512 
C  4.164011215080148  -4.7595738825302965  0.9330215266563857 
C  4.552349853660564  -5.14021387061749  -0.3359911569896561 
C  3.8398988410381034  -4.7058793870017395  -1.4296865446344518 
C  2.7311245995534494  -3.8834634681326614  -1.2809188471632402 
C  1.9341999437974615  -3.4312389436338453  -2.4760449503381574 
C  2.699476767453918  -3.4557519236272105  2.510281901863448 
H  0.5677941529912213  -2.9790095475802767  0.41430691201293973 
H  3.2904512090118603  -1.1072357765013314  -0.4922538941120984 
H  3.3194464520363245  2.4878256740493647  -0.7561021509686976 
H  4.248346328893466  1.2075482111725768  -1.0061222038136417 
H  4.040337539170187  1.7691654047515817  0.47897029541808855 
H  4.646273484432919  -5.080163268781576  1.6854308095482016 
H  5.310445887750605  -5.701938446103027  -0.45332927693606345 
H  4.109291604325385  -4.973139920008134  -2.3006667950337345 
H  2.293963738106262  -3.848068771664355  -3.2865722211740014 
H  1.9926859542450608  -2.4566732596347163  -2.557305605966987 
H  0.9970980628654108  -3.694117584890695  -2.3631036172284494 
H  2.714108608792285  -2.476492968672583  2.545817072613284 
H  3.3375642627643063  -3.8160855721206106  3.1612853043829494 
H  1.7975554753457734  -3.77812556778849  2.723535052818325 
O  -1.2934800220722389  1.324012625506267  3.3174336067834687e-15 
N  -1.2164574255690719  -2.6332415419126947  -0.1636206101723209 
C  -2.4382332630735286  0.7288897317961651  0.09968263940723605 
C  -2.5100113099103067  -0.6484248155652771  0.15072291388573936 
C  -1.2934800220722393  -1.324012625506267  -6.661338147750939e-16 
C  -3.637782779520185  1.6265948571876403  0.14632280920213828 
C  -2.3694468967701363  -3.4994456686002846  -0.12224851560477423 
C  -2.9537969064321192  -3.9136708047014532  -1.308634929396698 
C  -4.050758838479181  -4.759573882530296  -1.2279625514766879 
C  -4.5696180630535945  -5.1402138706174885  -0.006494093208912713 
C  -3.975392229776689  -4.705879387001739  1.155681326170037 
C  -2.857141510799325  -3.883463468132661  1.12362706128454 
C  -2.189507186667096  -3.431238943633845  2.3955074482244347 
C  -2.429378660600455  -3.45575192362721  -2.643496994103976 
H  -0.5284626712779327  -2.979009547580276  -0.336182466689197 
H  -3.3309661349923196  -1.107235776501331  0.2808169464141954 
H  -3.3873821918667426  2.4878256740493643  0.5401889867174172 
H  -4.337327669916039  1.2075482111725764  0.6917429268954556 
H  -3.97522393735217  1.7691654047515812  -0.763471241101752 
H  -4.451731038571513  -5.080163268781575  -2.026660191498359 
H  -5.335826341108689  -5.701938446103025  0.030958622786405834 
H  -4.334351458430369  -4.973139920008133  1.9937310440636196 
H  -2.632023327324962  -3.8480687716643547  3.163989009305328 
H  -2.2561668560869794  -2.456673259634716  2.470209496684543 
H  -1.2457332639000247  -3.694117584890694  2.3811386390938054 
H  -2.4402159103905943  -2.4764929686725825  -2.6803669433602177 
H  -2.995922260599965  -3.81608557212061  -3.3576324371839688 
H  -1.5101071635437693  -3.7781255677884897  -2.761305475332448 
