15

Fe 0.0 0.0 0.0
S 1.587536 -1.275236 0.0
N 1.587536 1.275236 0.0
C 2.4726699957732885 0.22146228959507847 0.02437849899138929
C 3.8632268636899587 0.434562660364457 0.01635443645217318
H 4.486115515589998 -0.3623008633482942 0.05313449414653503
C 4.291947647602134 1.7016721430614195 -0.04127805550223355
H 5.3185528262938195 1.8920625831337365 -0.054331571608472136
C 3.383784885926474 2.7790929571345346 -0.07644023269549131
H 3.7578753935454667 3.7517225871603554 -0.12455750861603976
C 2.0465088838189898 2.566700406131265 -0.04049631682031394
H 1.3992496423262306 3.3323122743680282 -0.05033503452982951
N -2.3003977222835847 -9.32724629424128e-05 -0.013370527982590811
O -1.436353 1.068172 0.0
O -1.436353 -1.068172 0.0
15

Fe 0.0 0.0 0.0
S 1.587536 -1.275236 0.0
N 1.587536 1.275236 0.0
C 2.4811334076624347 0.20884179314645734 0.030405138873135746
C 3.8827072536117444 0.458216128292704 0.014603447945837204
H 4.537700843009124 -0.4047559988927252 0.05036328721601989
C 4.319256223879531 1.690662751083326 -0.041701714133041676
H 5.349261967331284 1.8970955458592074 -0.054219939467335755
C 3.3905907324711086 2.834102065108384 -0.07705671060975983
H 3.7670433523582316 3.7834120551299053 -0.12307302256088097
C 2.06506655270298 2.5819136627598898 -0.042468111380330034
H 1.3599461440776925 3.3859261206352484 -0.055818399957265286
N -2.2963429714543273 1.808135363137496e-05 -0.01231368916375882
O -1.436353 1.068172 0.0
O -1.436353 -1.068172 0.0
15

Fe 0.0 0.0 0.0
S 1.587536 -1.275236 0.0
N 1.587536 1.275236 0.0
C 2.483200933204816 0.21005796000754864 0.03240811766129782
C 3.900276988607771 0.4617066714446692 0.013684429171486339
H 4.539968350018349 -0.4037144628765734 0.04979204509990248
C 4.325965679319563 1.695215669723636 -0.041670793523964286
H 5.358189628931084 1.8975445048876403 -0.05438139150691504
C 3.3861957484883036 2.833192894322835 -0.0764345264453501
H 3.7722835007939435 3.8029498283624994 -0.12249915165201891
C 2.0798358643969266 2.610655422942082 -0.04537578539117299
H 1.3586708174233826 3.3884000396240657 -0.05652023092180445
N -2.2965601175496624 1.8045105491030368e-05 -0.012051057196656624
O -1.436353 1.068172 0.0
O -1.436353 -1.068172 0.0
15

Fe 0.0 0.0 0.0
S 1.587536 -1.275236 0.0
N 1.587536 1.275236 0.0
C 2.497788250837223 0.22385723756728432 0.04319934035359923
C 3.9172431650338106 0.4430282624872517 0.013542277817881506
H 4.558572973114969 -0.39699368364951554 0.04569413151160103
C 4.339423181578128 1.7172178712638269 -0.04148151487557471
H 5.37859427731605 1.898911751834716 -0.054980705491056665
C 3.3818346676820994 2.8227318068220533 -0.07470646761800867
H 3.776911723944844 3.823231592475462 -0.12179416110801017
C 2.0528267725138387 2.6177865462408447 -0.04627359667922254
H 1.3489059043616016 3.4163156348206907 -0.06335704025348778
N -2.297845907207101 6.678708801931107e-06 -0.010795412854950755
O -1.436353 1.068172 0.0
O -1.436353 -1.068172 0.0
15

Fe 0.0 0.0 0.0
S 1.587536 -1.275236 0.0
N 1.587536 1.275236 0.0
C 2.49690582935637 0.21615665864814998 0.04865580137683724
C 3.9326741800495575 0.451248119387673 0.013357319885588366
H 4.578561683860182 -0.3998245901033453 0.04271528639410049
C 4.346419375948934 1.7091307511405722 -0.040335280561533175
H 5.398626187673199 1.9048763866794058 -0.05619559470138626
C 3.3657650545458044 2.8116091976979205 -0.06920312128461441
H 3.775960685902065 3.8286059903624716 -0.12085725766638854
C 2.0307161701930876 2.6082679450259736 -0.046947748187112545
H 1.3448630149425906 3.4273095327379552 -0.06575546555855022
N -2.297364854261484 4.821717855915714e-06 -0.009867396491055237
O -1.436353 1.068172 0.0
O -1.436353 -1.068172 0.0
15

Fe 0.0 0.0 0.0
S 1.587536 -1.275236 0.0
N 1.587536 1.275236 0.0
C 2.4982492578370197 0.21517395713376092 0.04981664556593484
C 3.932448845398605 0.4508107061499584 0.013556214718172007
H 4.583585043433179 -0.40044343336258675 0.04201240297904816
C 4.34746340935631 1.707006431379937 -0.03985823989451929
H 5.401272163743566 1.906376073358223 -0.05657277878956697
C 3.356685103324604 2.813589128034861 -0.06641623702689398
H 3.773533068194351 3.8303455107336744 -0.11969299034737259
C 2.0315176671989827 2.607877628379198 -0.04672018984690704
H 1.3425164796825368 3.430131721155173 -0.06669616446839065
N -2.297244450653995 5.963062835624556e-06 -0.009613136809347887
O -1.436353 1.068172 0.0
O -1.436353 -1.068172 0.0
15

Fe 0.0 0.0 0.0
S 1.587536 -1.275236 0.0
N 1.587536 1.275236 0.0
C 2.5002714036818974 0.21458385558316098 0.05151066995823797
C 3.931366600300161 0.4449369138934663 0.015729573219388737
H 4.590987114397422 -0.4009527240914123 0.04087511424258451
C 4.34662372721723 1.7064535228824602 -0.03895790901020964
H 5.405642025931689 1.9092093355312287 -0.05734722227085816
C 3.349285301610184 2.8307412031877344 -0.06360605486487643
H 3.7667196818280284 3.830470067855451 -0.11699246748774358
C 2.0331829829396306 2.606277044213 -0.04492172161393233
H 1.3392822841689627 3.432721948413754 -0.06804009753313338
N -2.297141018968978 7.97123492718761e-06 -0.009211832866325986
O -1.436353 1.068172 0.0
O -1.436353 -1.068172 0.0
15

Fe 0.0 0.0 0.0
S 1.587536 -1.275236 0.0
N 1.587536 1.275236 0.0
C 2.5003452139642928 0.21442820858343115 0.05198667412260523
C 3.932105380873159 0.44484826223858587 0.01579324432193745
H 4.592790865283784 -0.4011071472941475 0.04060667951452068
C 4.344298591764936 1.706113251344099 -0.03676662628395269
H 5.406199725936439 1.9097052654584934 -0.05752383057075084
C 3.351799040357262 2.8336001414170426 -0.06383285860728785
H 3.7652355665915036 3.830935187246319 -0.11643731910961268
C 2.035471432866795 2.6037969795586338 -0.04028693698440503
H 1.338612205555626 3.432904079671342 -0.06832245843910927
N -2.2971403107735595 8.211410758063986e-06 -0.00909641197337684
O -1.436353 1.068172 0.0
O -1.436353 -1.068172 0.0
15

Fe 0.0 0.0 0.0
S 1.587536 -1.275236 0.0
N 1.587536 1.275236 0.0
C 2.500318555530122 0.21370613648437978 0.05419658728443688
C 3.9365684007455473 0.4453137218012007 0.016103128831744584
H 4.600037149698414 -0.40161914309498714 0.03946112057081387
C 4.343416797818264 1.7100916916528348 -0.035488839793497
H 5.407518167197747 1.9114927570656037 -0.05803931904168768
C 3.369385505810356 2.8407885833873814 -0.06523137331403275
H 3.7595678888729864 3.8342861678588496 -0.11447237245792731
C 2.029837831979571 2.6098524708447153 -0.03605938974670811
H 1.336697474134276 3.4324627932686704 -0.06884129665909769
N -2.2971809333193023 8.485037286552575e-06 -0.008644484688212948
O -1.436353 1.068172 0.0
O -1.436353 -1.068172 0.0
15

Fe 0.0 0.0 0.0
S 1.587536 -1.275236 0.0
N 1.587536 1.275236 0.0
C 2.5018024437602726 0.21383811334119263 0.057058555598787426
C 3.937130431888108 0.44679282853320296 0.016468318690961308
H 4.6068422679293715 -0.4015032462707649 0.03836456869732478
C 4.347163339466292 1.7208438315731571 -0.03332498976232844
H 5.408265299646138 1.9133411165974605 -0.058453603861223384
C 3.366769999907305 2.83861945873926 -0.0641730250794426
H 3.756276308900875 3.841016142120519 -0.11302361643873682
C 2.0283046376104172 2.620441499490997 -0.03665945807771538
H 1.3305932273434455 3.4324803334736895 -0.0694297072793736
N -2.2972098423762843 8.282559270154772e-06 -0.008204324866147424
O -1.436353 1.068172 0.0
O -1.436353 -1.068172 0.0
15

Fe 0.0 0.0 0.0
S 1.587536 -1.275236 0.0
N 1.587536 1.275236 0.0
C 2.5023475579116448 0.2142151036907819 0.05800369481922194
C 3.941459801852762 0.45639383683753404 0.018593942531534017
H 4.60948079604734 -0.4008891550438585 0.03783280826207384
C 4.348615685449157 1.719595733009265 -0.03355138915920678
H 5.409666739212158 1.916318859915801 -0.0588826623453134
C 3.3617156621273394 2.8382123385829 -0.06192920395117211
H 3.7555769245562485 3.8430294247084804 -0.11267774998179374
C 2.028813536835198 2.6198147052811644 -0.03826291291380354
H 1.3280495151582952 3.433800017976453 -0.06941134818121611
N -2.2972120852401434 8.175521557699456e-06 -0.0079866440765416
O -1.436353 1.068172 0.0
O -1.436353 -1.068172 0.0
15

Fe 0.0 0.0 0.0
S 1.587536 -1.275236 0.0
N 1.587536 1.275236 0.0
C 2.5081177786175712 0.21933288854977206 0.06511552387673096
C 3.9438220189379027 0.4522553462675236 0.018683998017607815
H 4.618368273386036 -0.3954639141725887 0.03615582371257502
C 4.352952121712726 1.719845696855724 -0.03400821426439533
H 5.412139068587174 1.9209683627375373 -0.05940665140394658
C 3.3594590408591056 2.847478315106344 -0.05940695982042241
H 3.7522881891584547 3.8486656958895837 -0.11104740688163917
C 2.0276928118776714 2.614115075225084 -0.0465897745689915
H 1.322971532454435 3.437761475247837 -0.06939931734544844
N -2.2972045532669294 7.990605754790766e-06 -0.007341727231568024
O -1.436353 1.068172 0.0
O -1.436353 -1.068172 0.0
15

Fe 0.0 0.0 0.0
S 1.587536 -1.275236 0.0
N 1.587536 1.275236 0.0
C 2.5059746447323934 0.2170322453401503 0.0693287831926141
C 3.9530598896521982 0.4483903083929649 0.018476132780600545
H 4.624603330829908 -0.39182678484200845 0.03506432023601296
C 4.3556751573883785 1.724232746863313 -0.03380612856973521
H 5.416009040940546 1.9265387775976377 -0.060358460187637415
C 3.3646377263678606 2.8512946086442077 -0.06166288164146496
H 3.746841740430125 3.858568483606506 -0.1075572183149322
C 2.0211651000743562 2.6173174889202953 -0.05351437066172181
H 1.3207814672830016 3.43738339251486 -0.07123771802101303
N -2.297208005497536 8.143484966310459e-06 -0.0067206609655195365
O -1.436353 1.068172 0.0
O -1.436353 -1.068172 0.0
15

Fe 0.0 0.0 0.0
S 1.587536 -1.275236 0.0
N 1.587536 1.275236 0.0
C 2.5088958982908003 0.21302316217490402 0.0761230177294362
C 3.962866095646601 0.4564192034283067 0.01808816199223592
H 4.640799406718955 -0.3879402460561952 0.03297734302948306
C 4.3583402044734445 1.7246149995045357 -0.033909784160785404
H 5.42022872376054 1.9334044423354575 -0.06147722930234518
C 3.363008079743134 2.85456337581349 -0.06792265760618847
H 3.7436481866997284 3.8660198117356264 -0.10474756830536078
C 2.022236387151665 2.628522786315744 -0.055933781696337705
H 1.3085097569357567 3.4369868563089736 -0.0813228627337065
N -2.2972196017575683 8.306291355498777e-06 -0.005923456070578253
O -1.436353 1.068172 0.0
O -1.436353 -1.068172 0.0
15

Fe 0.0 0.0 0.0
S 1.587536 -1.275236 0.0
N 1.587536 1.275236 0.0
C 2.5129561459056 0.2171559460114443 0.07723485904985418
C 3.957391550773949 0.45582725971893856 0.018658127067282978
H 4.64442165381591 -0.38598817134004304 0.03277550943325025
C 4.360458614870562 1.7308841339622858 -0.03525930890288313
H 5.420754398152406 1.9353497185472415 -0.061912211578823574
C 3.3622708531758874 2.857023384201487 -0.0667627769759655
H 3.742603113761564 3.8677727936683097 -0.1051874863127777
C 2.022525037739992 2.6221636756157376 -0.05466668419505374
H 1.307508768451145 3.438815339491074 -0.08232561625527905
N -2.2972183576821665 8.18970608076412e-06 -0.005681891888421079
O -1.436353 1.068172 0.0
O -1.436353 -1.068172 0.0
15

Fe 0.0 0.0 0.0
S 1.587536 -1.275236 0.0
N 1.587536 1.275236 0.0
C 2.508821422938251 0.21940622962822937 0.08164113199695777
C 3.952554548432734 0.4669436905440064 0.01953503519761243
H 4.6562866444528375 -0.3758565318282822 0.032096763849292304
C 4.3565382221557805 1.7364886703748525 -0.0366406027702039
H 5.427617236140553 1.9536151298176545 -0.06648217075244194
C 3.361696095997961 2.861028623452904 -0.06414694856223867
H 3.733287936941659 3.8827037602750907 -0.10821839372212863
C 2.0193068409482153 2.62511031813254 -0.05222242775486503
H 1.3071874751857357 3.4381575749028594 -0.0848746326823516
N -2.297219346093712 7.922915480681114e-06 -0.004292449370060323
O -1.436353 1.068172 0.0
O -1.436353 -1.068172 0.0
15

Fe 0.0 0.0 0.0
S 1.587536 -1.275236 0.0
N 1.587536 1.275236 0.0
C 2.50878948350716 0.2199509039332359 0.08318398409262368
C 3.9535805585906068 0.4717657079450717 0.019887146560312877
H 4.657560128906092 -0.37142946975839647 0.03188834486159995
C 4.352343489231618 1.7484651131779347 -0.03868826234252964
H 5.4262061645156665 1.9545781536116755 -0.06701334277875498
C 3.3585884117911236 2.872372305118375 -0.0586691548988655
H 3.732486568362672 3.8825108387472986 -0.10811940996517584
C 2.019447672653058 2.6254672034391677 -0.05150935052592366
H 1.3063933928511524 3.438209171532036 -0.08613102637467836
N -2.297223608747926 8.103289803124656e-06 -0.004151877293394085
O -1.436353 1.068172 0.0
O -1.436353 -1.068172 0.0
15

Fe 0.0 0.0 0.0
S 1.587536 -1.275236 0.0
N 1.587536 1.275236 0.0
C 2.511233137008589 0.22230031712820136 0.0887142921802557
C 3.961152838967376 0.47560939641741234 0.01902308312376614
H 4.657331575258949 -0.36023219939726403 0.031374816539231236
C 4.358586397570122 1.7522624942031817 -0.036016466039440136
H 5.416459021834414 1.960431253314624 -0.07030567086465006
C 3.35399409546673 2.870919160166595 -0.062263833207671204
H 3.7215542403065425 3.884187077747757 -0.10568760473365128
C 2.020278275957382 2.6304371903228323 -0.04614565109538013
H 1.3041142820161669 3.438555000877005 -0.08730847660215826
N -2.297233318416736 8.527798320745859e-06 -0.0037604376483459765
O -1.436353 1.068172 0.0
O -1.436353 -1.068172 0.0
15

Fe 0.0 0.0 0.0
S 1.587536 -1.275236 0.0
N 1.587536 1.275236 0.0
C 2.5181909239437252 0.22260668726117233 0.09512262160663254
C 3.965477865371746 0.4819617196566653 0.020547515325334588
H 4.660892637025205 -0.3516399921028844 0.030085254210362174
C 4.354671063131723 1.7559663884486647 -0.03627466429068176
H 5.418430474629111 1.9689246763928776 -0.07237555127303072
C 3.355040835610559 2.8741978316845915 -0.06138965063172293
H 3.7178945033030057 3.891128298024597 -0.10600072741413583
C 2.0126939397058488 2.632010108235545 -0.03942950816936629
H 1.2978260175454153 3.441929329259909 -0.0868786526946666
N -2.297226220505309 8.10977566425286e-06 -0.0031440260358933333
O -1.436353 1.068172 0.0
O -1.436353 -1.068172 0.0
15

Fe 0.0 0.0 0.0
S 1.587536 -1.275236 0.0
N 1.587536 1.275236 0.0
C 2.5180477414536853 0.22268758788420764 0.09545679827896264
C 3.965349894962544 0.48204603680337366 0.02062253214708152
H 4.661359654198927 -0.3509942704590234 0.030002347008617283
C 4.354033214884664 1.7575129665140157 -0.036437233177875464
H 5.418400755133873 1.969436718683185 -0.07252069421741378
C 3.355481269626003 2.878414792995433 -0.06002330425604558
H 3.717781633275366 3.891523268190948 -0.10607365746600879
C 2.0117574688136766 2.6317678184716677 -0.03910891736307879
H 1.297375725070887 3.4421496620619108 -0.08658815760022599
N -2.2972268154397133 8.136443895938254e-06 -0.003114197541666631
O -1.436353 1.068172 0.0
O -1.436353 -1.068172 0.0
15

Fe 0.0 0.0 0.0
S 1.587536 -1.275236 0.0
N 1.587536 1.275236 0.0
C 2.5140252600814668 0.22416062928167632 0.09975639760108154
C 3.961361973797935 0.48487033983965677 0.02241010569385863
H 4.665613768062083 -0.34645305814007854 0.029436865784667723
C 4.357834664278903 1.7646590146879741 -0.037105871239712096
H 5.417387680412006 1.9742686109656724 -0.0740016635972017
C 3.346550195404875 2.8789811962420706 -0.057056503755700816
H 3.716624384240887 3.8997027181490362 -0.10718388356327158
C 2.008830876107268 2.62751814477475 -0.04361785611056299
H 1.2938093259001497 3.443386904968003 -0.08319497927833422
N -2.2972348824174817 8.521995517640667e-06 -0.0028272058585599963
O -1.436353 1.068172 0.0
O -1.436353 -1.068172 0.0
15

Fe 0.0 0.0 0.0
S 1.587536 -1.275236 0.0
N 1.587536 1.275236 0.0
C 2.514312535506834 0.22455720270117083 0.10426191663185187
C 3.960753343292449 0.4980906347049395 0.025612795825938606
H 4.66964129291794 -0.3373345155313447 0.028916468201814635
C 4.351082868582616 1.7696858621641132 -0.03543815207265115
H 5.418727573638253 1.9873784907414707 -0.0781312582813354
C 3.3458818454763617 2.8844454257052616 -0.05970913568065306
H 3.710750116155513 3.9023503751972286 -0.10543139540664216
C 2.0087136962472356 2.630637132989856 -0.05280751496922394
H 1.2898439853338328 3.4407103817345233 -0.08062682967074007
N -2.297230820234066 8.488733472161346e-06 -0.002359118814909743
O -1.436353 1.068172 0.0
O -1.436353 -1.068172 0.0
15

Fe 0.0 0.0 0.0
S 1.587536 -1.275236 0.0
N 1.587536 1.275236 0.0
C 2.515463952546733 0.22731283926798992 0.11056809069971092
C 3.9634264732956 0.5000981080890485 0.026791084322815965
H 4.671269174968317 -0.3281034824503169 0.028923437345589248
C 4.34494710810279 1.7818841814915296 -0.03376797691831155
H 5.416651355377682 1.99015546859144 -0.07883716999561112
C 3.3432896024861805 2.8878087386972333 -0.0627072750770949
H 3.7080263886581566 3.9045600098999245 -0.10437811977582807
C 2.0086951916981266 2.631472638068872 -0.05186609316690751
H 1.2878506697053065 3.43975900561589 -0.08123631121271833
N -2.297232484599947 8.4436229637375e-06 -0.0022051689848247755
O -1.436353 1.068172 0.0
O -1.436353 -1.068172 0.0
15

Fe 0.0 0.0 0.0
S 1.587536 -1.275236 0.0
N 1.587536 1.275236 0.0
C 2.516393542139708 0.2272672154786182 0.11271323571760454
C 3.963262926951653 0.5012531656466365 0.026418538342643485
H 4.672761538012004 -0.32320302692899916 0.029441943100921682
C 4.351571052204056 1.7838605737427806 -0.03545178649514195
H 5.408589269474715 1.9991307131880638 -0.08037522143893565
C 3.336933323195779 2.8936429694391688 -0.0642000772884623
H 3.7047794334187016 3.9083787080897197 -0.10392842427613065
C 2.006393680803188 2.634106339604141 -0.04872209730548138
H 1.2858023790416389 3.439073500753382 -0.08263501545125451
N -2.2972342133768477 8.460559743380929e-06 -0.002015229365463944
O -1.436353 1.068172 0.0
O -1.436353 -1.068172 0.0
15

Fe 0.0 0.0 0.0
S 1.587536 -1.275236 0.0
N 1.587536 1.275236 0.0
C 2.5165990019540216 0.22759076785023247 0.11404361792579432
C 3.963863546900179 0.508691486547158 0.024210097149154768
H 4.673551287691836 -0.32128678285560525 0.029713271402611985
C 4.351044331753038 1.784000900198521 -0.03683532642104905
H 5.409004583707672 2.0012516432519325 -0.08068838035380277
C 3.3376973085789916 2.8938044687386393 -0.0631134306894412
H 3.702627699086955 3.911085395676528 -0.1041538086530936
C 2.003603612597224 2.634448071960843 -0.04818810331111446
H 1.2842488694622487 3.4391038021813602 -0.0831219747279627
N -2.2972340880688766 8.487111990493568e-06 -0.0019372327989273148
O -1.436353 1.068172 0.0
O -1.436353 -1.068172 0.0
15

Fe 0.0 0.0 0.0
S 1.587536 -1.275236 0.0
N 1.587536 1.275236 0.0
C 2.517391861089605 0.2298819958415131 0.11708271976085537
C 3.965779543519798 0.506353002140994 0.024181067408503187
H 4.675009153670028 -0.3154408671153455 0.030095506939537883
C 4.34681046696372 1.787488249657717 -0.04398422487734357
H 5.410235818727344 2.005192322005103 -0.08139796709342258
C 3.338373619354117 2.8938635642265003 -0.0610461815284605
H 3.700482888044572 3.9135969491425175 -0.10459794696592006
C 2.002533031731351 2.6331777023846077 -0.04936616856139553
H 1.2812802873998912 3.439621432762255 -0.08351116827314722
N -2.2972336830904383 8.543067825824888e-06 -0.001821742532072764
O -1.436353 1.068172 0.0
O -1.436353 -1.068172 0.0
15

Fe 0.0 0.0 0.0
S 1.587536 -1.275236 0.0
N 1.587536 1.275236 0.0
C 2.5181899340700973 0.22890582188090183 0.1210664902004423
C 3.965782418349526 0.5076141547725234 0.021912931997706674
H 4.678910483139278 -0.3104062162209563 0.030637800317318407
C 4.3512379996371715 1.7879998456168407 -0.04125364949081375
H 5.409604477692083 2.0144042132721327 -0.08555208039414361
C 3.33540926659477 2.8975422195703975 -0.053319684007937504
H 3.6954527742711147 3.9184349447224784 -0.10473132088023547
C 2.0031246875606716 2.633308237815979 -0.050593281414532565
H 1.2770994755017904 3.439528669015175 -0.08376292518834495
N -2.29723392018022 8.633261741907452e-06 -0.0015589832374725268
O -1.436353 1.068172 0.0
O -1.436353 -1.068172 0.0
15

Fe 0.0 0.0 0.0
S 1.587536 -1.275236 0.0
N 1.587536 1.275236 0.0
C 2.518189131957774 0.22890707241937794 0.12107896051616981
C 3.9657910099223406 0.5076278750796354 0.021900362147236865
H 4.678919571908803 -0.31039659342659504 0.03063455854188741
C 4.351251950292109 1.7880163861011755 -0.041231793383106626
H 5.409605874612285 2.0144160203110886 -0.08555748888144116
C 3.335404392884214 2.8975496632964015 -0.053320797386349615
H 3.6954376123925887 3.918447307313251 -0.10472487054524479
C 2.003149007259313 2.6333212130978425 -0.050661933419092635
H 1.2770939271454682 3.439524893081796 -0.0837665242812211
N -2.2972339227583616 8.63302092123723e-06 -0.0015584886497395358
O -1.436353 1.068172 0.0
O -1.436353 -1.068172 0.0
15

Fe 0.0 0.0 0.0
S 1.587536 -1.275236 0.0
N 1.587536 1.275236 0.0
C 2.517835445315248 0.22940372764127737 0.1228718544579499
C 3.9675163582593584 0.5089438347933551 0.021973813279692223
H 4.680454592516954 -0.30889067294522404 0.029826708788769078
C 4.3501465974915146 1.7911945219585381 -0.03898224490869333
H 5.409984249552496 2.016713724644524 -0.08660959997786812
C 3.331041183698246 2.9046062153787515 -0.057962859618053246
H 3.693251066691956 3.920071453850385 -0.10330315309924738
C 2.0012469133127375 2.6341702870355967 -0.049793831547353694
H 1.2762557247090467 3.4386126348678885 -0.08462569710496659
N -2.297234481951486 8.56884658264308e-06 -0.0014739466168869788
O -1.436353 1.068172 0.0
O -1.436353 -1.068172 0.0
15

Fe 0.0 0.0 0.0
S 1.587536 -1.275236 0.0
N 1.587536 1.275236 0.0
C 2.518560182375626 0.22997571661234986 0.12397018920994662
C 3.9677126816816006 0.5103950867001877 0.023284312836632008
H 4.681729130172938 -0.30782932864129664 0.02919482465764743
C 4.34781384772375 1.7946733884796437 -0.03993113579327181
H 5.409820085171821 2.018431941964388 -0.08691602978231161
C 3.3333516457482886 2.8995375674686445 -0.059044572152985614
H 3.69160664720043 3.9227711423341614 -0.10302498033242884
C 1.9984648425603926 2.635834408948747 -0.04974296963803137
H 1.2751581834196224 3.4381908808825976 -0.08490283508554494
N -2.2972344986285114 8.597255217644557e-06 -0.0014160928586354343
O -1.436353 1.068172 0.0
O -1.436353 -1.068172 0.0
15

Fe 0.0 0.0 0.0
S 1.587536 -1.275236 0.0
N 1.587536 1.275236 0.0
C 2.5201899533128853 0.23114906832307996 0.1280797932127404
C 3.9685848912291988 0.5182324701843922 0.027849244150980258
H 4.687058728595131 -0.30246324820652026 0.027058301379901225
C 4.3487680863529725 1.7944248698498841 -0.04100816758524789
H 5.407541883260737 2.0284107348558305 -0.08902640983883836
C 3.330552716457879 2.9009699293817865 -0.06121857000373791
H 3.6872670016877063 3.9256495604455157 -0.10263220134386451
C 1.998218222812094 2.633438518772872 -0.050115085085128346
H 1.2676101147841317 3.4373242686093906 -0.08630037761686112
N -2.2972346915233133 8.711688215956873e-06 -0.0011795965808643794
O -1.436353 1.068172 0.0
O -1.436353 -1.068172 0.0
15

Fe 0.0 0.0 0.0
S 1.587536 -1.275236 0.0
N 1.587536 1.275236 0.0
C 2.5201899533128853 0.23114906832307996 0.1280797932127404
C 3.9685848912291988 0.5182324701843922 0.027849244150980258
H 4.687058728595131 -0.30246324820652026 0.027058301379901225
C 4.3487680863529725 1.7944248698498841 -0.04100816758524789
H 5.407541883260737 2.0284107348558305 -0.08902640983883836
C 3.330552716457879 2.9009699293817865 -0.06121857000373791
H 3.6872670016877063 3.9256495604455157 -0.10263220134386451
C 1.998218222812094 2.633438518772872 -0.050115085085128346
H 1.2676101147841317 3.4373242686093906 -0.08630037761686112
N -2.2972346915233133 8.711688215956873e-06 -0.0011795965808643794
O -1.436353 1.068172 0.0
O -1.436353 -1.068172 0.0
15

Fe 0.0 0.0 0.0
S 1.587536 -1.275236 0.0
N 1.587536 1.275236 0.0
C 2.5197096884741184 0.23179018895249998 0.12942545127137056
C 3.9738158462781015 0.5156709877035527 0.02979916393299061
H 4.687440136622054 -0.2999272304469598 0.027401728155710542
C 4.348452227961213 1.7978903557185204 -0.04118582417875558
H 5.407197979245755 2.0295833550832723 -0.08993236075477987
C 3.3305058083591526 2.9014957594154067 -0.06109882374055531
H 3.6856212303401756 3.926097032973217 -0.10289488965473002
C 1.9964833172961214 2.6337666363895385 -0.050840894487156695
H 1.2675021806742055 3.43624222393753 -0.08621582141095127
N -2.2972348561987497 8.68234269082039e-06 -0.0011307149544597314
O -1.436353 1.068172 0.0
O -1.436353 -1.068172 0.0
15

Fe 0.0 0.0 0.0
S 1.587536 -1.275236 0.0
N 1.587536 1.275236 0.0
C 2.5212041088466504 0.23219999354923604 0.13383834650166987
C 3.9706121863957318 0.5160807460206098 0.027696450821286432
H 4.690642793989216 -0.2966097367051317 0.028905236898932554
C 4.348956431001344 1.8032771275091786 -0.04017582523064428
H 5.406223684603599 2.034038000426151 -0.09288007711995717
C 3.327183440951489 2.909838948411263 -0.05983482373287339
H 3.681402225715303 3.927385185843747 -0.1036399689938765
C 1.995245138852138 2.635319032579087 -0.05177400323704984
H 1.266544201455927 3.4349887569116224 -0.08629516376918688
N -2.2972350982388283 8.671902523081447e-06 -0.0010120166613218436
O -1.436353 1.068172 0.0
O -1.436353 -1.068172 0.0
15

Fe 0.0 0.0 0.0
S 1.587536 -1.275236 0.0
N 1.587536 1.275236 0.0
C 2.5203814631251453 0.23178361768485367 0.13681305608209748
C 3.9659932511926375 0.5213469114938137 0.023404051098876336
H 4.692209542915133 -0.29472270645445975 0.029250884675967686
C 4.345574417075016 1.8081391225726755 -0.04019979047307501
H 5.406288482822454 2.03740731836731 -0.0941886607741453
C 3.325133459332151 2.9082703291190404 -0.06009340767606911
H 3.675229153132958 3.9325655203826955 -0.10451661379423483
C 1.9928635239423766 2.638303893703693 -0.05233903649126513
H 1.2636022323686316 3.4331842711259015 -0.08693871741010002
N -2.297235110742315 8.718510489577087e-06 -0.0009262403027419754
O -1.436353 1.068172 0.0
O -1.436353 -1.068172 0.0
15

Fe 0.0 0.0 0.0
S 1.587536 -1.275236 0.0
N 1.587536 1.275236 0.0
C 2.5164644082165593 0.2336677249535882 0.1434028328381452
C 3.971780061744993 0.5282646019541295 0.0227891631281705
H 4.696913738723169 -0.2803581204968313 0.029219636437529662
C 4.3402898087377615 1.8089308128875816 -0.04447819314474061
H 5.404287864453971 2.044954821608704 -0.09577146815533863
C 3.3172213230716054 2.908431978804844 -0.06234963740042345
H 3.671553159317753 3.9357442007986787 -0.10450493244969532
C 1.9877344426376526 2.6369977384361953 -0.05248294544954248
H 1.2566759613536493 3.4338885113735356 -0.08875137789235701
N -2.297235062285599 8.82208220406753e-06 -0.000780299105260627
O -1.436353 1.068172 0.0
O -1.436353 -1.068172 0.0
15

Fe 0.0 0.0 0.0
S 1.587536 -1.275236 0.0
N 1.587536 1.275236 0.0
C 2.517787985490429 0.23763827645919397 0.1549028652028289
C 3.9717407071525974 0.5302896664489364 0.02464358904979988
H 4.69807845028823 -0.2783150352478068 0.028574202668904935
C 4.333888133387932 1.8165975530711376 -0.05358327801667065
H 5.400027499670963 2.050139082991824 -0.09747761925931349
C 3.3156993346030026 2.9119626164373686 -0.06351673176873415
H 3.666137240852311 3.9376089103075853 -0.10492010858475133
C 1.985680639621473 2.634887579093287 -0.0529619562300655
H 1.2542568337460687 3.4342172938617046 -0.0890684431157882
N -2.297235049301267 8.880649922752231e-06 -0.0007090266473731005
O -1.436353 1.068172 0.0
O -1.436353 -1.068172 0.0
15

Fe 0.0 0.0 0.0
S 1.587536 -1.275236 0.0
N 1.587536 1.275236 0.0
C 2.5212232053478494 0.2363684214023281 0.15818885361120774
C 3.968097740186741 0.5361495482693714 0.02910991336060632
H 4.699408449521402 -0.27574602400056636 0.028446052769598176
C 4.337279719240794 1.819362934765594 -0.05379110122167114
H 5.395357823477783 2.0541272785004865 -0.10042899244422997
C 3.312226628443158 2.9163972295700797 -0.06568661567174937
H 3.663832514197914 3.9385498148036926 -0.10531884645564886
C 1.9841812258432225 2.63536135354383 -0.05360871816785669
H 1.2525012471749177 3.4337600228082614 -0.08909168474543502
N -2.2972350933276164 8.913638798427404e-06 -0.0006663014464608456
O -1.436353 1.068172 0.0
O -1.436353 -1.068172 0.0
15

Fe 0.0 0.0 0.0
S 1.587536 -1.275236 0.0
N 1.587536 1.275236 0.0
C 2.521019792552284 0.2365752374853722 0.15988174154808854
C 3.969067657278651 0.5346606082423068 0.028214664806928424
H 4.6998994846762265 -0.2709799783518829 0.02908380698289506
C 4.33892435257518 1.8233815256170658 -0.05110115163595252
H 5.394284559619651 2.056375312297105 -0.10311549087087786
C 3.3123710372745587 2.9154524222342686 -0.06620397533388507
H 3.6600229734771483 3.9411002778374824 -0.10634547409586557
C 1.9799641776920869 2.6389542530107706 -0.05558987727652249
H 1.250474773712927 3.4330052733664846 -0.08906592977313178
N -2.297235177643327 8.931720840135955e-06 -0.000627266417505204
O -1.436353 1.068172 0.0
O -1.436353 -1.068172 0.0
15

Fe 0.0 0.0 0.0
S 1.587536 -1.275236 0.0
N 1.587536 1.275236 0.0
C 2.520949353126691 0.23670309430267347 0.16166357919266858
C 3.9706468093411473 0.5345805452481052 0.02696369469750996
H 4.6999706572829725 -0.26990385225230007 0.029406573999032695
C 4.337723323059374 1.8231690491376693 -0.049479243089045645
H 5.394235200425804 2.058777767120356 -0.10531331798363718
C 3.311733714568903 2.912310160870504 -0.06900835941699215
H 3.6585957142848273 3.9420466479939686 -0.10688078209560986
C 1.9811112799860084 2.6385971192370756 -0.055826792372983526
H 1.2474375912826348 3.432885984084525 -0.08932303848622915
N -2.297235197670526 8.954087529541662e-06 -0.000599732099438018
O -1.436353 1.068172 0.0
O -1.436353 -1.068172 0.0
15

Fe 0.0 0.0 0.0
S 1.587536 -1.275236 0.0
N 1.587536 1.275236 0.0
C 2.52131544184781 0.23658627956289452 0.1632338820236325
C 3.9708725070237954 0.535650675457586 0.026739364306751383
H 4.700420123595449 -0.2687967815268175 0.029675861988256974
C 4.336494772166222 1.8215948127320503 -0.048942397765730526
H 5.3941841050893276 2.0609174088341145 -0.10674403969624643
C 3.3101763790272902 2.9134661902071546 -0.07049937313719505
H 3.6565434645901376 3.9424539827712333 -0.10792291433709028
C 1.9841116308097537 2.6363085357588747 -0.056475620185481926
H 1.246288244637795 3.433037798167887 -0.08959172406674579
N -2.29723519875272 8.969779178727861e-06 -0.0005716198972486532
O -1.436353 1.068172 0.0
O -1.436353 -1.068172 0.0
15

Fe 0.0 0.0 0.0
S 1.587536 -1.275236 0.0
N 1.587536 1.275236 0.0
C 2.521867499903919 0.23647896230729193 0.16623156928233854
C 3.96998747593391 0.5363180643923531 0.027494690511898606
H 4.701665595384338 -0.26645899507817244 0.030050845896041418
C 4.335898782183598 1.8217169354672997 -0.05068678085240735
H 5.393204421894728 2.0645985205036625 -0.10900843295166306
C 3.307469902119621 2.9208359607313095 -0.07147948238548307
H 3.652479406415058 3.942918543941226 -0.11038901644318716
C 1.9818153083831263 2.635752106691135 -0.05751883705945245
H 1.2454682005356348 3.4319448886093507 -0.09032192451658273
N -2.2972352294870886 8.954559216428765e-06 -0.0005175457860154741
O -1.436353 1.068172 0.0
O -1.436353 -1.068172 0.0
15

Fe 0.0 0.0 0.0
S 1.587536 -1.275236 0.0
N 1.587536 1.275236 0.0
C 2.5217696095709004 0.2366778556975966 0.16726455362065587
C 3.9699470491761897 0.5362405016808095 0.027651652916297967
H 4.70191285373246 -0.26593633897553887 0.03015512990774228
C 4.3336663929040125 1.823721025529164 -0.0565535205921021
H 5.392826369400445 2.0653941491583203 -0.1096552820103248
C 3.307418516520018 2.920490545932607 -0.07100320598454507
H 3.651090854912734 3.94400220264816 -0.11136332441510419
C 1.9781696805617917 2.636330966161548 -0.05886703448616267
H 1.244848901412021 3.431207757734862 -0.09081115201035768
N -2.2972352310567197 8.963347892366233e-06 -0.0005039801702080882
O -1.436353 1.068172 0.0
O -1.436353 -1.068172 0.0
15

Fe 0.0 0.0 0.0
S 1.587536 -1.275236 0.0
N 1.587536 1.275236 0.0
C 2.5215584123670958 0.23707279303459325 0.1690124891357997
C 3.9689802593648444 0.5355555112324457 0.02956155773103404
H 4.702443465838066 -0.264931790496973 0.030531263465530117
C 4.334015875831572 1.8252253931095503 -0.05576931477138779
H 5.391444821270789 2.0674401058994225 -0.11192055444144915
C 3.305955341530954 2.917090160855076 -0.06838709510405716
H 3.6497876035325443 3.945786633674032 -0.11227187116131083
C 1.9786818666103718 2.637809033151847 -0.05860638300249072
H 1.2433090879165987 3.4305274987359318 -0.09156538414416973
N -2.2972352052622727 9.003342416875284e-06 -0.00048173271515093333
O -1.436353 1.068172 0.0
O -1.436353 -1.068172 0.0
15

Fe 0.0 0.0 0.0
S 1.587536 -1.275236 0.0
N 1.587536 1.275236 0.0
C 2.520764491870473 0.23675372475703468 0.1715972520351997
C 3.970003693771389 0.5389343151368657 0.027644773571034585
H 4.702914936635947 -0.26409331729255126 0.031161379779405564
C 4.3331615091568345 1.824802451824227 -0.05313108291834167
H 5.3903871517678015 2.069389280054492 -0.11437268349186308
C 3.305768999421679 2.9206855574497546 -0.07041382363811992
H 3.647676498602106 3.946294733195396 -0.11273400284960551
C 1.9785545899479193 2.636782867589768 -0.05704431511352695
H 1.241467456945585 3.4307412350399793 -0.0925003672647222
N -2.2972351971204366 9.02915982054401e-06 -0.00045395499210916003
O -1.436353 1.068172 0.0
O -1.436353 -1.068172 0.0
15

Fe 0.0 0.0 0.0
S 1.587536 -1.275236 0.0
N 1.587536 1.275236 0.0
C 2.5209277414529097 0.23772254937713863 0.1764965973192854
C 3.96923558644458 0.5383125243910517 0.027821687931695073
H 4.7041522771887285 -0.26086990686850253 0.03240240904530141
C 4.3312841012476495 1.8279587181868695 -0.0471874787939311
H 5.388714600853642 2.0718113611030162 -0.11698388209763988
C 3.3047029002102923 2.9200414727757087 -0.0701957731545705
H 3.6429545113618556 3.9490311848538604 -0.11446150885908538
C 1.9776977404896896 2.637273672698982 -0.05467703471856616
H 1.2393636780026895 3.430250913281722 -0.09340505339845098
N -2.2972351849686845 9.056152480661245e-06 -0.00040651414073088936
O -1.436353 1.068172 0.0
O -1.436353 -1.068172 0.0
15

Fe 0.0 0.0 0.0
S 1.587536 -1.275236 0.0
N 1.587536 1.275236 0.0
C 2.520983918192776 0.23775545273389379 0.17707664942578066
C 3.967456555004965 0.537364560432994 0.02868993239925952
H 4.7042484319005196 -0.26067534119658514 0.03230814319041733
C 4.331337596892562 1.828427033598201 -0.04750127423174863
H 5.388363896262945 2.07226851752237 -0.11712976804293047
C 3.302579382593603 2.9193160043739943 -0.06936210300208132
H 3.642624517643021 3.9492504963208477 -0.11468865753041618
C 1.9774102470793207 2.6375621665636317 -0.054657831918714136
H 1.239093524424178 3.430133407941405 -0.09348398119986585
N -2.2972351881646462 9.057413804372485e-06 -0.00040052991706389986
O -1.436353 1.068172 0.0
O -1.436353 -1.068172 0.0
15

Fe 0.0 0.0 0.0
S 1.587536 -1.275236 0.0
N 1.587536 1.275236 0.0
C 2.520452175687853 0.2374817220190927 0.18142945978377578
C 3.967713618794116 0.540268738876286 0.031350436375807186
H 4.704493738240813 -0.25954533118145684 0.031622382797653364
C 4.331509954465169 1.8330737528517003 -0.0553114491404869
H 5.3862945584725725 2.0751529381438836 -0.11760513535890416
C 3.3018466045973227 2.922184194843249 -0.0670640890357664
H 3.6398089845053128 3.9503251997977546 -0.11628494293816434
C 1.9734729643379758 2.639845930332012 -0.05608666765101354
H 1.2373577466200576 3.4294359306570232 -0.09394936996723763
N -2.2972351973425513 9.069184241589254e-06 -0.00036377069969017
O -1.436353 1.068172 0.0
O -1.436353 -1.068172 0.0
15

Fe 0.0 0.0 0.0
S 1.587536 -1.275236 0.0
N 1.587536 1.275236 0.0
C 2.520511243677955 0.23828016883501305 0.1848366742340907
C 3.9690594310513116 0.5450684161130914 0.03250839327166323
H 4.704584555520057 -0.2577360846878048 0.03140130496506216
C 4.3299595424251445 1.831702379955872 -0.05516409820038616
H 5.385181561905186 2.0782384516252805 -0.11934105441211901
C 3.2994714841058834 2.926888933719866 -0.06640747455981542
H 3.6382781566231808 3.9514590501673976 -0.11663936094364552
C 1.9738347293155838 2.6390283907979537 -0.056365563569580564
H 1.233696704906937 3.42910558872351 -0.09484234380297327
N -2.29723517621253 9.102486672511532e-06 -0.00034182653257723713
O -1.436353 1.068172 0.0
O -1.436353 -1.068172 0.0
