27

Fe  0.0  0.0  0.0 
N  1.3440721251108516  1.300142347014356  0.0 
C  1.2766998617715948  2.6241351190004165  0.24983117872118457 
C  2.3950448074974693  3.4569620494411666  -0.02580934134446909 
H  2.3350522559934683  4.396904104867891  0.09732520378493427 
C  3.548076177723869  2.896012795173129  -0.4689276476803698 
H  4.288274302137561  3.4507599362506243  -0.6857258166781649 
C  3.656182803350562  1.5080011869487624  -0.6078960718997439 
H  4.475358776048944  1.10732276031626  -0.8737376303231511 
C  2.5436518148876033  0.7366335422419894  -0.34848035069307 
C  2.543621384693526  -0.7359522322284878  -0.3420393957026103 
C  3.658138772120504  -1.5118122081122376  -0.5920346975477475 
H  4.477519987841847  -1.1115657534105714  -0.8603505912659066 
C  3.5580271019386096  -2.8906635385967467  -0.44295444427962427 
H  4.3016249604022985  -3.443257334691343  -0.6487803449966989 
C  2.3978982590546973  -3.4536883925144677  -0.002849443422069973 
H  2.3423151338598753  -4.391634224215412  0.1409459424162712 
C  1.2738948533037784  -2.6247289039823247  0.23804601156385966 
N  1.3440721251108516  -1.300142347014356  0.0 
N  0.13466542714219432  3.1206683036032183  0.7439911090159582 
H  -0.4559831074109728  2.602155121913465  1.1821188746781692 
H  -0.031207508333471967  4.000990987214232  0.8384838177113477 
N  0.09899533520477766  -3.1297023413199128  0.667821918234108 
H  -0.4564812643439078  -2.620460752104383  1.1522961602398987 
H  0.055271035165253446  -3.99586279489336  0.9177021180329268 
Cl  -1.5202795795510768  1.5202795795510768  0.0 
Cl  -1.5202795795510768  -1.5202795795510768  0.0 
