55

Fe  0.0  0.0  0.0 
O  0.26270253292422396  -2.003640854291273  1.910709772822602e-15 
N  2.144954617397717  0.02560126790488934  -2.39011475402347e-15 
N  -0.007657150321940698  1.978039586386384  4.794049812008675e-16 
N  -0.8372000548303371  3.9977157188409898  -0.11603361397877972 
C  1.245830723821546  -2.794498553856609  0.37943078328093743 
C  1.0012359519343825  -4.12651573958245  0.7008836639593927 
C  2.0304615762640843  -4.960737278881084  1.0886387510870152 
C  3.322810888335221  -4.512176600226777  1.1196139533373124 
C  3.598399648484026  -3.2256086332032416  0.8016981916824855 
C  2.580949145862127  -2.3237791524372367  0.44825072410666367 
C  2.940454677384115  -0.9647998942457873  0.1939887949656498 
C  2.8093608134789925  1.317912995423529  -0.2569886680898617 
C  2.3485956633965475  2.4142942206405547  0.6865305396961348 
C  0.9705123399359679  2.8778816397424807  0.35939265064893505 
C  -1.0855344451190656  2.7143370240334543  -0.29164709954873713 
C  0.4634521834894313  4.126911264498089  0.2919386349991882 
H  0.16676018222130629  -4.4825473412885275  0.6200365344594903 
H  1.8444609437780815  -5.841378968821859  1.2821704504364075 
H  4.005146313709905  -5.090385500923046  1.2811638045732738 
H  4.486482494170822  -2.8147566094838754  0.8237794915206477 
H  3.8007909964849054  -0.8494081440632777  0.26190596529775756 
H  2.605255114053243  1.6251947640092277  -1.1259314499557163 
H  3.767792344725006  1.162845542372447  -0.1171347982196535 
H  2.408948665306646  2.045268151519207  1.5463074441715265 
H  3.045907513520871  3.216838746383448  0.6766853441010102 
H  -1.955624096306283  2.338560475718569  -0.7358877602648146 
H  0.8151653194155136  4.958882318272234  0.45806863138449133 
H  -1.3888281852177207  4.662766154919712  -0.1668833262377693 
N  -1.9277880698198266  -2.220446049250313e-16  -0.07221193018017336 
C  -2.423424464143058  -0.08383156935226539  -1.3469707593718927 
C  -3.7879646361979553  -0.279250772328503  -1.5238945394484034 
H  -4.131973878591639  -0.34382493391044433  -2.385826711259921 
C  -4.637251407449159  -0.3818802595042239  -0.44928716066311214 
H  -5.546200658225591  -0.5315740349355547  -0.5741168170355622 
C  -4.116814084147533  -0.25830755747861756  0.7991464658580572 
H  -4.674560466367721  -0.30445656956969636  1.5410795031352056 
C  -2.768681471739243  -0.06084415773526422  0.9674927611038846 
H  -2.428839813679609  0.03207476061725545  1.828828271842579 
C  -1.3951263259524256  -0.005526751862678793  -2.391513857837289 
C  -1.7169303529102693  0.0487553660369421  -3.7431709149009773 
H  -2.6023983791192205  0.07806027391840964  -4.0253358612279815 
C  -0.6769307008771912  0.058176690795521874  -4.65670646013761 
H  -0.8707617073275608  0.08383644576858695  -5.5665084319497025 
C  0.6365854619973235  0.03400691810875031  -4.250438479666953 
H  1.318680643611634  0.024455018976777376  -4.883302710321085 
C  0.9475941008361042  0.021836991217452785  -2.9026856464489934 
H  1.8382793557475907  0.02715503268088735  -2.6356283770885285 
C  -0.07221193018017336  2.220446049250313e-16  -1.9277880698198266 
N  -0.0067905356641118075  -0.028323019709330294  3.0491377288018944 
C  0.0  0.0  1.91 
C  0.00027657175523719546  0.001819105800837273  4.486687626461956 
H  0.6691269699749678  -0.6301874861933178  4.822689698594319 
H  -0.88445613311643  -0.24985076267754044  4.822392151648225 
H  0.22184312705033715  0.9065421627793524  4.793014627795678 
