17

Fe  0.0  0.0  0.0 
N  1.2990061912862445  1.345170217853488  5.4488368968051285e-15 
N  3.3545186871189436  2.250254387753296  -0.5732064330346794 
N  3.1652186388437933  0.001877331185659692  -0.23503187275130075 
N  3.4233505899251115  -2.2540914411846225  0.046494900258075594 
N  1.2990061912862463  -1.345170217853488  1.9789725413943415e-14 
C  2.543866368712387  1.2194002091552811  -0.2586669742558172 
C  2.5824597424882954  -1.2243614139986747  -0.06307673753490511 
H  0.9740247422592366  2.239128141571789  -0.15310172569101985 
H  4.292511285254902  2.05859050642574  -0.7186849965299601 
H  2.96131510352635  2.946102283117626  -0.5474586493026479 
H  3.9237361400783586  -0.003998029341288456  -0.4720224853492532 
H  4.193278931912036  -2.208695550620349  -0.2169161878250993 
H  3.1126973618326894  -3.140216653577503  0.21714615234089965 
H  0.9416167978992764  -2.2084642973589577  0.1805001212889061 
Cl  -1.5202795795510768  1.5202795795510768  0.0 
Cl  -1.5202795795510768  -1.5202795795510768  0.0 
