32

Fe  0.0  0.0  0.0 
N  3.4502069909643964  2.8108128513589383  -0.997068262619331 
H  4.059552299307738  3.313388000701531  -1.3823681516191093 
C  3.5661201684280126  1.466363943310962  -1.0955143846297763 
O  4.50628292671695  0.8846517512629033  -1.6655917509136817 
C  2.449978857445358  0.7432104632171264  -0.493471464111551 
N  1.3474170818644087  1.2966754441648076  1.5136229049948414e-15 
C  1.362500488007362  2.671208534168682  0.19461481275464568 
C  0.3821486520260081  3.3122471986553004  0.9523517316923782 
H  -0.31587285482510374  2.7977625618079545  1.3370550257013525 
C  0.4024764777839459  4.661586975909245  1.1542818062732438 
H  -0.26574674325141356  5.080828924576012  1.6842363848431434 
C  1.4218505776312644  5.417519070876422  0.5667578132661131 
H  1.4213157136370704  6.362025836629858  0.6752705930042411 
C  2.4290676794429036  4.821798323270578  -0.1647851387812197 
H  3.1155583442629164  5.3476408600968846  -0.5583144052647566 
C  2.421670954191968  3.4289918942390925  -0.3226573329894647 
O  3.503451015292142  -1.5090642313816311  -0.5852235905811869 
C  2.4329824019481485  -0.689962420069003  -0.39664596584868594 
N  1.3474170818644085  -1.2966754441648076  -1.6653345369377348e-16 
C  1.6906145593468995  -2.6589803431657963  0.13225979588508152 
C  0.9506861580636098  -3.7717017581451135  0.50569501599801 
H  0.03682446610277057  -3.707362176968163  0.7576068979338868 
C  1.62197323480841  -4.985101315513474  0.4902252140051713 
H  1.1570946032558975  -5.774826280699017  0.7347619950598145 
C  2.9696415464128836  -5.077213968326864  0.12165317072342394 
H  3.3893866856807193  -5.929295362304099  0.12264114786407661 
C  3.7081875236647175  -3.9700197999937687  -0.24292380756004556 
H  4.627351497906875  -4.026795757563798  -0.4818538791236455 
C  3.024894949642927  -2.7839823517481377  -0.2349288312834296 
Cl  -1.5202795795510768  1.5202795795510768  0.0 
Cl  -1.5202795795510768  -1.5202795795510768  0.0 
