76

Pd  0.0  0.0  0.0 
S  0.18142  2.27116  0.0 
S  0.22531  -2.2832  0.0 
N  2.58592  1.22251  0.25922 
N  2.60974  -1.21947  -0.09354 
N  2.31479  3.61893  0.49369 
N  2.39849  -3.62365  0.17666 
C  1.67925  2.37411  0.26576 
C  1.73546  -2.37901  -0.02132 
C  1.99327  0.01204  0.0 
C  4.05134  1.28925  0.31142 
C  4.70891  0.07966  -0.40877 
C  4.06844  -1.27328  -0.00179 
C  1.69546  4.90103  0.43887 
C  1.83717  -4.92478  0.07402 
H  4.41841  2.20456  -0.20443 
H  4.38698  1.30692  1.36647 
H  5.80973  0.06671  -0.26311 
H  4.58968  0.20843  -1.49658 
H  4.3516  -1.5277  1.03908 
H  4.47212  -2.05192  -0.68731 
H  0.88331  4.9504  1.19904 
H  2.4667  5.66289  0.6768 
H  1.30517  5.07166  -0.57921 
H  1.60671  -5.14772  -0.98778 
H  2.59521  -5.64668  0.44176 
H  0.93128  -4.98813  0.70868 
N  -2.03098  0.0  0.03098 
N  -1.11512  -0.08279  -2.836 
N  0.03098  0.0  -2.03098 
C  -2.64449  0.40042  1.31132 
C  -3.99661  1.01004  1.26052 
C  -4.6665  1.05514  0.12599 
C  -4.11289  0.46964  -1.09471 
C  -2.84817  -0.03847  -1.12715 
C  -2.33181  -0.68885  -2.34482 
C  -1.11308  1.12732  -3.66087 
C  0.31891  1.30673  -3.88916 
C  0.94488  0.7484  -2.86945 
C  -1.9767  1.06062  -4.90669 
C  2.3946  0.93633  -2.70657 
H  -2.02978  1.15202  1.83743 
H  -4.41374  1.4106  2.17859 
H  -5.65591  1.51554  0.12958 
H  -4.74371  0.44771  -1.978 
H  -2.1329  -1.75365  -2.10584 
H  -3.09957  -0.67771  -3.15174 
H  0.80732  1.93717  -4.63228 
H  -1.99499  0.05448  -5.37295 
H  -3.00227  1.35753  -4.61229 
H  -1.62973  1.8107  -5.66134 
H  2.88987  1.42265  -3.56501 
H  2.82638  -0.06794  -2.54955 
H  2.54121  1.69236  -1.9472 
N  0.0  0.0  1.91 
H  -0.77281  -0.65128  2.09632 
C  0.80658  0.11241  3.15208 
C  1.4983  1.49312  3.18153 
H  1.88795  1.80535  4.16312 
H  0.81396  2.29754  2.83051 
H  2.41718  1.45581  2.59171 
N  -0.13667  -0.03593  4.29647 
C  0.16793  0.5607  5.62631 
H  -0.69052  0.4086  6.31535 
H  0.25981  1.6617  5.54064 
C  1.41534  -0.03988  6.27688 
H  1.57106  0.44498  7.26342 
H  2.31462  0.12507  5.65213 
H  1.29359  -1.12804  6.44397 
C  -0.81426  -1.35508  4.43175 
H  -0.50132  -1.90056  5.34525 
H  -0.56352  -2.04541  3.59847 
C  -2.32649  -1.12928  4.47668 
H  -2.87305  -2.0908  4.51399 
H  -2.66461  -0.58618  3.58112 
H  -2.60261  -0.50579  5.3498 
