55

Ni  0.0  0.0  0.0 
P  1.4038951073709167  -1.4523011146108789  9.542016280976904e-17 
N  1.4038951073709167  1.4523011146108789  -6.683328867811896e-17 
C  -0.11630784424569884  3.24793519404813  -0.681077505618653 
H  -0.7012137665688061  3.150375880366846  0.09780515713960464 
H  -0.48963911396868975  2.7457972195858624  -1.4356273433695694 
H  -0.044077324121940764  4.195466219918551  -0.9212461900377611 
C  1.2297996136004197  2.7173850056277025  -0.35632518538344177 
C  2.3401164804502907  3.602640826246192  -0.49467444360261015 
H  2.1817953617621884  4.515201180753044  -0.7086518320334343 
C  3.614415430624658  3.1746127102128603  -0.3287567005205269 
H  4.343648587740781  3.7800213208339284  -0.3840977950915997 
C  3.828283422083774  1.810039279081821  -0.07048017568617504 
C  5.116282276754906  1.2402654273129952  -0.014745911481755677 
H  5.874903201692682  1.810527827904695  -0.06461681199473202 
C  5.308269394767081  -0.10891076988698688  0.11008095031641231 
H  6.1883372344315175  -0.46713372707268874  0.15537941092530366 
C  4.186609341263024  -0.9697235155516224  0.17013360450112136 
H  4.311285466926322  -1.9092116260221395  0.23789180676568045 
C  2.9144512991602363  -0.44595772597305494  0.1317506189433087 
C  2.7154647013205575  0.9516638275598317  0.03842716540397139 
C  1.5734045572913407  -2.7598608320106686  1.2414654976361952 
C  1.8258059507972222  -2.360268730096259  2.55886380439232 
H  2.007127491151291  -1.447235756658598  2.746987536067012 
C  1.8137868304200684  -3.2824380010045413  3.5870814839416894 
H  1.9920190722520879  -3.0033201163442307  4.477353018044818 
C  1.543748602661191  -4.612358064115904  3.3192026656623788 
H  1.507337355796608  -5.241894174638662  4.0297363078283635 
C  1.3235657437194344  -5.026519231485906  2.012628792484539 
H  1.163026195004932  -5.944997167349365  1.8286537000656324 
C  1.337672247817951  -4.102691027746298  0.9691176250706972 
H  1.1856420629177538  -4.388381547312669  0.07593702188390186 
C  1.4564394984518008  -2.2162594348503237  -1.6406587859463417 
C  2.470917088756716  -3.080755187397064  -2.0413833579378617 
H  3.145960526583083  -3.339908248847989  -1.4254285643140339 
C  2.493660141786839  -3.567125863487372  -3.338210019052734 
H  3.191096394193747  -4.148214982341427  -3.612630790456904 
C  1.4965986885024127  -3.202982811692155  -4.241887525801495 
H  1.5175530179769359  -3.5308579886850344  -5.133261899669261 
C  0.48299673237978946  -2.367230740176869  -3.837355846569437 
H  -0.20618215112393523  -2.1348186931128983  -4.448343012483864 
C  0.45737718431679175  -1.862370905929305  -2.53734692101522 
H  -0.24024802692802916  -1.2778006529294863  -2.267594768209416 
Br  -1.5839191898578664  1.5839191898578664  0.0 
C  -1.2937473829822488  -1.2398794889499034  -0.4598005675376139 
C  -1.601562203225019  -1.4938654694550033  -1.7919791134336869 
H  -1.1309417375171225  -1.0428217585005106  -2.480879663633267 
C  -2.60218398542082  -2.411889969420291  -2.121542410022959 
H  -2.8231586547736818  -2.5626138747145775  -3.03270050271447 
C  -3.2683208079706407  -3.09759503004543  -1.143064365570095 
H  -3.9596020908062854  -3.707191723557817  -1.3683280760515548 
C  -2.9347449854640226  -2.896087320001541  0.14198826503765638 
H  -3.3668350933519986  -3.405606940434718  0.8171022443470677 
C  -1.9675509241539992  -1.9516175659140573  0.5112421903797603 
H  -1.7755298364628027  -1.8022912010877177  1.4301324877763764 
