56

Ni  0.0  0.0  0.0 
P  1.3486427909198195  1.5037495211969318  -1.1880705267330266e-17 
N  1.3486427909198195  -1.503749521196931  1.9081958235744878e-17 
C  2.7005077566382805  -1.42143537029933  0.10814173581498888 
C  3.404398003431295  -2.4225297638667893  0.7728470883114857 
H  4.342728169901574  -2.337355462432564  0.8956274493921447 
C  2.7457676018404698  -3.540117700760909  1.2565099124039216 
H  3.229752990714095  -4.229610788130092  1.694855353610961 
C  1.3776276764485933  -3.6430778931450543  1.0943650594699665 
H  0.9070657812458057  -4.414694567760138  1.385359664641827 
C  0.7188307001389497  -2.5915418575815083  0.4974028078019156 
H  -0.22779362783230828  -2.633498908347371  0.43116107183421726 
C  3.4593710511033775  -0.2827843643544614  -0.49975845909725924 
C  3.02222646780875  1.0609711557747272  -0.5523337899902881 
C  3.8770481532425345  2.0483841883774803  -1.0511918250648313 
H  3.5902106704330654  2.954229524185645  -1.060874079457404 
C  5.1372912417492875  1.7262219012604119  -1.533293431192111 
H  5.713349100535681  2.4082524525876408  -1.8580444902922972 
C  5.551018762437395  0.4068311070935877  -1.5389344322658192 
H  6.396484871901529  0.17646752252248765  -1.906448971639631 
C  4.731409667579384  -0.5803128780419529  -1.0093568418819372 
H  5.039848817743705  -1.4795857429294728  -0.9921552395463551 
C  1.4628405938953895  1.6028659916589576  1.8085965738878265 
C  2.6966878055263903  1.687991814274755  2.4471979539947437 
H  3.494589909605579  1.7349175748521106  1.934339118348651 
C  2.76337313267983  1.7044833407227644  3.834768491552336 
H  3.6081289750877934  1.7487039233814183  4.2679505742692 
C  1.6080694351354432  1.6584602138492723  4.585793962647102 
H  1.658213010285359  1.6759374662969284  5.534519369452517 
C  0.3746055296499404  1.5858679114336995  3.9608272423375315 
H  -0.42042629260207787  1.5629225275691474  4.4812089108904924 
C  0.2978700582195992  1.5461087267043094  2.5755741771346323 
H  -0.5483108870644735  1.4800930448366376  2.1489581230699515 
C  0.9636771497961734  3.160222896508344  -0.6290749415122873 
C  0.8780625140201326  4.26966568367683  0.20988057348285866 
H  1.1241137790719478  4.19496639804674  1.125021268508913 
C  0.43231548593868263  5.483301750903878  -0.29564979482574477 
H  0.3568238903400389  6.2343921745942525  0.28010416689279155 
C  0.09773858644938227  5.608210768231772  -1.6309001480248637 
H  -0.2141985189342488  6.4392565889514985  -1.967069311020496 
C  0.21849117445742094  4.516978141474977  -2.477955315526269 
H  0.017647567419863064  4.610030679831645  -3.4015963500291555 
C  0.631325157038822  3.2933468092199885  -1.9839924064431271 
H  0.6891286011177805  2.5430461613421818  -2.563169166721694 
Br  -1.5839191898578664  1.5839191898578664  0.0 
C  -1.2937473829822488  -1.2398794889499034  -0.459800567 
C  -1.601562203225019  -1.4938654694550033  -1.7919791134 
H  -1.1309417375171225  -1.0428217585005106  -2.480879663 
C  -2.60218398542082  -2.411889969420291  -2.121542410022 
H  -2.8231586547736818  -2.5626138747145775  -3.032700502 
C  -3.2683208079706407  -3.09759503004543  -1.14306436557 
H  -3.9596020908062854  -3.707191723557817  -1.368328076 
C  -2.9347449854640226  -2.896087320001541  0.14198826503 
H  -3.3668350933519986  -3.405606940434718  0.81710224434 
C  -1.9675509241539992  -1.9516175659140573  0.5112421903 
H  -1.7755298364628027  -1.8022912010877177  1.4301324877 
