67

Cr  0.0  0.0  0.0 
S  6.48527  0.25435  -0.10194 
N  0.26101  2.0766  0.0 
N  1.87382  -0.01025  0.0 
N  -0.19608  -4.50452  -0.24772 
C  1.60036  2.37974  -0.03952 
C  2.03262  3.70627  -0.10077 
C  1.08941  4.72338  -0.12971 
C  -0.27032  4.41235  -0.10068 
C  -0.67073  3.07  -0.03415 
C  2.53195  1.24616  -0.01955 
C  4.01302  1.24647  -0.05847 
C  4.67782  0.07671  -0.08502 
C  3.90918  -1.22801  -0.08844 
C  2.54565  -1.22367  -0.04744 
C  6.97615  -1.441  -0.47134 
C  -0.73178  -3.17037  -0.04936 
C  0.26517  -2.06635  0.0 
C  1.60908  -2.35376  -0.07243 
C  2.08527  -3.74463  -0.21178 
C  1.21197  -4.74893  -0.29318 
C  -1.12432  -5.59158  -0.41428 
H  3.0851  3.95073  -0.12827 
H  1.41145  5.75516  -0.17679 
H  -1.00783  5.20366  -0.13044 
H  -1.72412  2.82539  -0.01227 
H  4.55027  2.1881  -0.06179 
H  4.44067  -2.16668  -0.13888 
H  6.69794  -2.09992  0.37432 
H  6.55821  -1.7646  -1.44616 
H  8.08258  -1.44287  -0.55227 
H  -1.83053  -3.0044  -0.05013 
H  3.14607  -3.96344  -0.26043 
H  1.59817  -5.75697  -0.40892 
H  -1.77664  -5.65409  0.48374 
H  -1.74648  -5.3974  -1.3115 
H  -0.59582  -6.55897  -0.5459 
N  -1.93789  0.0  -0.06211 
N  -2.37755  -0.01743  -1.34341 
C  -3.05787  -0.07696  0.89428 
C  -4.43221  -0.03328  0.51468 
H  -4.72713  0.05695  -0.52043 
C  -5.46551  -0.13215  1.48984 
H  -6.5007  -0.10632  1.20769 
C  -5.15469  -0.25013  2.84798 
H  -5.91118  -0.32217  3.61914 
C  -3.84183  -0.29773  3.21871 
H  -3.53669  -0.41578  4.26673 
C  -2.86519  -0.24128  2.25586 
H  -1.98547  -0.3485  2.63105 
C  -1.46425  -0.07994  -2.34312 
C  -1.87969  -0.21708  -3.60532 
H  -2.94236  -0.28156  -3.83137 
C  -0.88579  -0.2851  -4.68111 
H  -1.22388  -0.39692  -5.70644 
C  0.41728  -0.2045  -4.36886 
H  1.15189  -0.2509  -5.1641 
C  0.84825  -0.05531  -2.94202 
H  1.90601  0.00631  -2.72283 
C  -0.06211  0.0  -1.93789 
N  0.0  0.0  1.93 
C  0.05399  0.11566  3.41759 
H  0.52998  -0.88641  1.90852 
H  0.68577  0.76013  1.79169 
H  1.09079  0.07446  3.82053 
H  -0.46236  -0.7427  3.9163 
H  -0.44404  1.05528  3.7477 
