23

Fe  0.0  0.0  0.0 
F  4.723182714401348  3.573414071543275  -0.05226010913486086 
F  4.654593904715234  -3.61516825655025  0.08831740474020544 
N  1.3208647678698977  1.323713059918954  0.0 
N  1.3208647678698977  -1.323713059918954  0.0 
C  1.2662579636186477  2.639983362567986  0.08688139785757744 
H  0.43198046135723933  3.044367591452737  0.15449932927934903 
C  2.3865965023412516  3.441662043644815  0.08203671419114576 
H  2.3206769291060465  4.367773447331545  0.13880208942887987 
C  3.577641547811164  2.8274565827953326  -0.006331897455168982 
C  3.6784825663554472  1.4665054034587026  -0.084138236793197 
H  4.510509157377543  1.0576396935191639  -0.14612947059128983 
C  2.5364846689248424  0.7161215286778524  -0.07065555408670275 
C  2.535771668462732  -0.7226258121670018  -0.0322180614239129 
C  3.6701936654138376  -1.5065709558853362  -0.023325116245249182 
H  4.512322908588484  -1.1145490776455222  -0.07001381692799605 
C  3.5483813136359426  -2.8566443170331204  0.05646467303549822 
C  2.3348117443329857  -3.451803603327564  0.09059082721904574 
H  2.2569286809639664  -4.377607780310628  0.13939712108540997 
C  1.2258403271598681  -2.6544162450245308  0.05166748317483788 
H  0.3833975914306492  -3.0481388846061837  0.06383547799463286 
Cl  -1.5202795795510768  1.5202795795510768  0.0 
Cl  -1.5202795795510768  -1.5202795795510768  0.0 
23

Fe  0.0  0.0  0.0 
F  4.723182714401348  3.573414071543275  -0.05226010913486086 
F  4.654593904715234  -3.61516825655025  0.08831740474020544 
N  1.3208647678698977  1.323713059918954  0.0 
N  1.3208647678698977  -1.323713059918954  0.0 
C  1.2662579636186477  2.639983362567986  0.08688139785757744 
H  0.43198046135723933  3.044367591452737  0.15449932927934903 
C  2.3865965023412516  3.441662043644815  0.08203671419114576 
H  2.3206769291060465  4.367773447331545  0.13880208942887987 
C  3.577641547811164  2.8274565827953326  -0.006331897455168982 
C  3.6784825663554472  1.4665054034587026  -0.084138236793197 
H  4.510509157377543  1.0576396935191639  -0.14612947059128983 
C  2.5364846689248424  0.7161215286778524  -0.07065555408670275 
C  2.535771668462732  -0.7226258121670018  -0.0322180614239129 
C  3.6701936654138376  -1.5065709558853362  -0.023325116245249182 
H  4.512322908588484  -1.1145490776455222  -0.07001381692799605 
C  3.5483813136359426  -2.8566443170331204  0.05646467303549822 
C  2.3348117443329857  -3.451803603327564  0.09059082721904574 
H  2.2569286809639664  -4.377607780310628  0.13939712108540997 
C  1.2258403271598681  -2.6544162450245308  0.05166748317483788 
H  0.3833975914306492  -3.0481388846061837  0.06383547799463286 
I  -1.7606958851545036  1.7606958851545036  0.0 
I  -1.7606958851545036  -1.7606958851545036  0.0 
29

Fe  0.0  0.0  0.0 
F  4.723182714401348  -3.573414071543275  0.052260109134861295 
F  4.654593904715234  3.61516825655025  -0.08831740474020588 
N  1.3208647678698977  -1.323713059918954  1.6210809618192955e-16 
N  1.3208647678698977  1.323713059918954  -1.6210809618192955e-16 
C  1.2662579636186477  -2.639983362567986  -0.08688139785757712 
H  0.43198046135723933  -3.044367591452737  -0.15449932927934867 
C  2.3865965023412516  -3.441662043644815  -0.08203671419114535 
H  2.3206769291060465  -4.367773447331545  -0.13880208942887934 
C  3.577641547811164  -2.8274565827953326  0.006331897455169328 
C  3.6784825663554472  -1.4665054034587026  0.08413823679319718 
H  4.510509157377543  -1.0576396935191639  0.14612947059128997 
C  2.5364846689248424  -0.7161215286778524  0.07065555408670283 
C  2.535771668462732  0.7226258121670018  0.03221806142391281 
C  3.6701936654138376  1.5065709558853362  0.023325116245248998 
H  4.512322908588484  1.1145490776455222  0.07001381692799591 
C  3.5483813136359426  2.8566443170331204  -0.05646467303549857 
C  2.3348117443329857  3.451803603327564  -0.09059082721904615 
H  2.2569286809639664  4.377607780310628  -0.1393971210854105 
C  1.2258403271598681  2.6544162450245308  -0.05166748317483821 
H  0.3833975914306492  3.0481388846061837  -0.06383547799463324 
C  -1.3505739520663058  1.3505739520663056  -6.021038136088188e-17 
H  -1.2054240118470785  1.9600137759171008  0.7543648294817743 
H  -2.231692124451363  0.9298127130759422  0.08430045110266027 
H  -1.3069282350623042  1.854217882367702  -0.8386652805844347 
C  -1.3505739520663058  -1.3505739520663058  0.0 
H  -2.1451170802102526  -1.0203207075539273  0.4703038507266114 
H  -1.0110663852242963  -2.150438452303008  0.4532849140641122 
H  -1.5878609059261963  -1.5732852115038103  -0.9235887647907236 
23

Fe  0.0  0.0  0.0 
F  4.723182714401348  3.573414071543275  -0.05226010913486086 
F  4.654593904715234  -3.61516825655025  0.08831740474020544 
N  1.3208647678698977  1.323713059918954  0.0 
N  1.3208647678698977  -1.323713059918954  0.0 
C  1.2662579636186477  2.639983362567986  0.08688139785757744 
H  0.43198046135723933  3.044367591452737  0.15449932927934903 
C  2.3865965023412516  3.441662043644815  0.08203671419114576 
H  2.3206769291060465  4.367773447331545  0.13880208942887987 
C  3.577641547811164  2.8274565827953326  -0.006331897455168982 
C  3.6784825663554472  1.4665054034587026  -0.084138236793197 
H  4.510509157377543  1.0576396935191639  -0.14612947059128983 
C  2.5364846689248424  0.7161215286778524  -0.07065555408670275 
C  2.535771668462732  -0.7226258121670018  -0.0322180614239129 
C  3.6701936654138376  -1.5065709558853362  -0.023325116245249182 
H  4.512322908588484  -1.1145490776455222  -0.07001381692799605 
C  3.5483813136359426  -2.8566443170331204  0.05646467303549822 
C  2.3348117443329857  -3.451803603327564  0.09059082721904574 
H  2.2569286809639664  -4.377607780310628  0.13939712108540997 
C  1.2258403271598681  -2.6544162450245308  0.05166748317483788 
H  0.3833975914306492  -3.0481388846061837  0.06383547799463286 
Br  -1.626345596729059  1.626345596729059  0.0 
Br  -1.626345596729059  -1.626345596729059  0.0 
31

Fe  0.0  0.0  0.0 
F  4.723182714401348  -3.573414071543275  0.052260109134861295 
F  4.654593904715234  3.61516825655025  -0.08831740474020588 
N  1.3208647678698977  -1.323713059918954  1.6210809618192955e-16 
N  1.3208647678698977  1.323713059918954  -1.6210809618192955e-16 
C  1.2662579636186477  -2.639983362567986  -0.08688139785757712 
H  0.43198046135723933  -3.044367591452737  -0.15449932927934867 
C  2.3865965023412516  -3.441662043644815  -0.08203671419114535 
H  2.3206769291060465  -4.367773447331545  -0.13880208942887934 
C  3.577641547811164  -2.8274565827953326  0.006331897455169328 
C  3.6784825663554472  -1.4665054034587026  0.08413823679319718 
H  4.510509157377543  -1.0576396935191639  0.14612947059128997 
C  2.5364846689248424  -0.7161215286778524  0.07065555408670283 
C  2.535771668462732  0.7226258121670018  0.03221806142391281 
C  3.6701936654138376  1.5065709558853362  0.023325116245248998 
H  4.512322908588484  1.1145490776455222  0.07001381692799591 
C  3.5483813136359426  2.8566443170331204  -0.05646467303549857 
C  2.3348117443329857  3.451803603327564  -0.09059082721904615 
H  2.2569286809639664  4.377607780310628  -0.1393971210854105 
C  1.2258403271598681  2.6544162450245308  -0.05166748317483821 
H  0.3833975914306492  3.0481388846061837  -0.06383547799463324 
O  -1.26572113832392  1.26572113832392  0.0 
C  -2.2430493804281424  2.2428844290608794  2.053269517499068e-05 
H  -2.4746037707441353  2.473508828024286  -0.9239621299820838 
H  -1.907944509385554  3.040212308404488  0.4612440015526821 
H  -3.03960491195382  1.908597007021999  0.462697595734228 
O  -1.26572113832392  -1.26572113832392  0.0 
C  -2.242906295185292  -2.2430275143037304  -8.172533887773614e-05 
H  -2.999729378280147  -1.948383220488274  -0.5486731680508374 
H  -2.5473024635756882  -2.400854354214354  0.9181708386505019 
H  -1.8752644354705246  -3.072937483505295  -0.3694159452607868 
35

Fe  0.0  0.0  0.0 
F  4.723182714401348  -3.573414071543275  0.052260109134861295 
F  4.654593904715234  3.61516825655025  -0.08831740474020588 
N  1.3208647678698977  -1.323713059918954  1.6210809618192955e-16 
N  1.3208647678698977  1.323713059918954  -1.6210809618192955e-16 
C  1.2662579636186477  -2.639983362567986  -0.08688139785757712 
H  0.43198046135723933  -3.044367591452737  -0.15449932927934867 
C  2.3865965023412516  -3.441662043644815  -0.08203671419114535 
H  2.3206769291060465  -4.367773447331545  -0.13880208942887934 
C  3.577641547811164  -2.8274565827953326  0.006331897455169328 
C  3.6784825663554472  -1.4665054034587026  0.08413823679319718 
H  4.510509157377543  -1.0576396935191639  0.14612947059128997 
C  2.5364846689248424  -0.7161215286778524  0.07065555408670283 
C  2.535771668462732  0.7226258121670018  0.03221806142391281 
C  3.6701936654138376  1.5065709558853362  0.023325116245248998 
H  4.512322908588484  1.1145490776455222  0.07001381692799591 
C  3.5483813136359426  2.8566443170331204  -0.05646467303549857 
C  2.3348117443329857  3.451803603327564  -0.09059082721904615 
H  2.2569286809639664  4.377607780310628  -0.1393971210854105 
C  1.2258403271598681  2.6544162450245308  -0.05166748317483821 
H  0.3833975914306492  3.0481388846061837  -0.06383547799463324 
C  -1.3505739520663058  1.3505739520663058  0.0 
H  -0.6848753194023682  1.7316395103926265  0.5951204085954483 
H  -0.995340476507059  1.4188343065942564  -0.899035239488318 
C  -2.5010047352633897  2.1862998625159134  0.06532538308894656 
H  -3.2158084687201667  1.7857480856017163  -0.4351780800830183 
H  -2.292526320644033  3.046438056804509  -0.307123710565145 
H  -2.7700963374254  2.2906918360533965  0.9808912384520845 
C  -1.3505739520663058  -1.3505739520663058  0.0 
H  -0.8421673862196962  -1.5743474435752984  0.7962299405962652 
H  -1.8608615134785569  -0.5533132696227586  0.2075973720873842 
C  -2.2818820620622184  -2.405422535717084  -0.21483914872710247 
H  -2.7350861352684017  -2.266470419053481  -1.0498171108937857 
H  -2.9234317255380433  -2.4155326519104983  0.4995354762734019 
H  -1.8162228353955003  -3.2445653380832953  -0.2387065293361635 
29

Fe  0.0  0.0  0.0 
F  4.723182714401348  -3.573414071543275  0.052260109134861295 
F  4.654593904715234  3.61516825655025  -0.08831740474020588 
N  1.3208647678698977  -1.323713059918954  1.6210809618192955e-16 
N  1.3208647678698977  1.323713059918954  -1.6210809618192955e-16 
C  1.2662579636186477  -2.639983362567986  -0.08688139785757712 
H  0.43198046135723933  -3.044367591452737  -0.15449932927934867 
C  2.3865965023412516  -3.441662043644815  -0.08203671419114535 
H  2.3206769291060465  -4.367773447331545  -0.13880208942887934 
C  3.577641547811164  -2.8274565827953326  0.006331897455169328 
C  3.6784825663554472  -1.4665054034587026  0.08413823679319718 
H  4.510509157377543  -1.0576396935191639  0.14612947059128997 
C  2.5364846689248424  -0.7161215286778524  0.07065555408670283 
C  2.535771668462732  0.7226258121670018  0.03221806142391281 
C  3.6701936654138376  1.5065709558853362  0.023325116245248998 
H  4.512322908588484  1.1145490776455222  0.07001381692799591 
C  3.5483813136359426  2.8566443170331204  -0.05646467303549857 
C  2.3348117443329857  3.451803603327564  -0.09059082721904615 
H  2.2569286809639664  4.377607780310628  -0.1393971210854105 
C  1.2258403271598681  2.6544162450245308  -0.05166748317483821 
H  0.3833975914306492  3.0481388846061837  -0.06383547799463324 
O  -1.26572113832392  1.26572113832392  0.0 
O  -3.294923904967489  1.8856867094818544  0.4026613992238449 
O  -1.8992490286430812  3.313076576284632  -0.4037350775452413 
N  -2.184132972243117  2.1795426200872017  0.0010736783213962653 
O  -1.26572113832392  -1.26572113832392  0.0 
O  -1.831182629353698  -3.3494279850956445  0.050758830552114165 
O  -3.367702601002498  -1.8446230039252147  -0.050699611033737574 
N  -2.1794206754974907  -2.1842549168328276  -5.921951837664641e-05 
27

Fe  0.0  0.0  0.0 
F  4.723182714401348  -3.573414071543275  0.052260109134861295 
F  4.654593904715234  3.61516825655025  -0.08831740474020588 
N  1.3208647678698977  -1.323713059918954  1.6210809618192955e-16 
N  1.3208647678698977  1.323713059918954  -1.6210809618192955e-16 
C  1.2662579636186477  -2.639983362567986  -0.08688139785757712 
H  0.43198046135723933  -3.044367591452737  -0.15449932927934867 
C  2.3865965023412516  -3.441662043644815  -0.08203671419114535 
H  2.3206769291060465  -4.367773447331545  -0.13880208942887934 
C  3.577641547811164  -2.8274565827953326  0.006331897455169328 
C  3.6784825663554472  -1.4665054034587026  0.08413823679319718 
H  4.510509157377543  -1.0576396935191639  0.14612947059128997 
C  2.5364846689248424  -0.7161215286778524  0.07065555408670283 
C  2.535771668462732  0.7226258121670018  0.03221806142391281 
C  3.6701936654138376  1.5065709558853362  0.023325116245248998 
H  4.512322908588484  1.1145490776455222  0.07001381692799591 
C  3.5483813136359426  2.8566443170331204  -0.05646467303549857 
C  2.3348117443329857  3.451803603327564  -0.09059082721904615 
H  2.2569286809639664  4.377607780310628  -0.1393971210854105 
C  1.2258403271598681  2.6544162450245308  -0.05166748317483821 
H  0.3833975914306492  3.0481388846061837  -0.06383547799463324 
N  -1.3222896808188438  1.3222896808188438  0.0 
S  -3.2645105214819488  3.2788930259419966  0.002509172531020787 
C  -2.126615816815705  2.1122333123556576  -0.0025091725310201207 
N  -1.322289680818844  -1.3222896808188438  -1.0155214447298763e-17 
S  -3.2790591072326194  -3.2643444401913264  -0.0012097317859732781 
C  -2.1120672310650344  -2.1267818981063282  0.0012097317859742218 
29

Fe  0.0  0.0  0.0 
F  4.723182714401348  -3.573414071543275  0.052260109134861295 
F  4.654593904715234  3.61516825655025  -0.08831740474020588 
N  1.3208647678698977  -1.323713059918954  1.6210809618192955e-16 
N  1.3208647678698977  1.323713059918954  -1.6210809618192955e-16 
C  1.2662579636186477  -2.639983362567986  -0.08688139785757712 
H  0.43198046135723933  -3.044367591452737  -0.15449932927934867 
C  2.3865965023412516  -3.441662043644815  -0.08203671419114535 
H  2.3206769291060465  -4.367773447331545  -0.13880208942887934 
C  3.577641547811164  -2.8274565827953326  0.006331897455169328 
C  3.6784825663554472  -1.4665054034587026  0.08413823679319718 
H  4.510509157377543  -1.0576396935191639  0.14612947059128997 
C  2.5364846689248424  -0.7161215286778524  0.07065555408670283 
C  2.535771668462732  0.7226258121670018  0.03221806142391281 
C  3.6701936654138376  1.5065709558853362  0.023325116245248998 
H  4.512322908588484  1.1145490776455222  0.07001381692799591 
C  3.5483813136359426  2.8566443170331204  -0.05646467303549857 
C  2.3348117443329857  3.451803603327564  -0.09059082721904615 
H  2.2569286809639664  4.377607780310628  -0.1393971210854105 
C  1.2258403271598681  2.6544162450245308  -0.05166748317483821 
H  0.3833975914306492  3.0481388846061837  -0.06383547799463324 
Cl  -3.379892415293355  1.8315377141597176  -1.7557662440768596 
Sn  -1.810193359837561  1.810193359837561  8.425449591418785e-17 
Cl  -3.2751158976059873  1.948017376785594  1.8252292236019085 
Cl  -1.2317679558457895  4.10722117779982  -0.06946297952504893 
Cl  -1.1638899269383096  -4.047540202514764  0.3517055418741619 
Sn  -1.8101933598375612  -1.810193359837561  1.2822894560154351e-17 
Cl  -3.5565729125096794  -1.6665603618819018  1.557556817553377 
Cl  -3.1663134292971433  -2.172675704348466  -1.9092623594275384 
37

Fe  0.0  0.0  0.0 
F  4.723182714401348  3.573414071543275  -0.05226010913486086 
F  4.654593904715234  -3.61516825655025  0.08831740474020544 
N  1.3208647678698977  1.323713059918954  0.0 
N  1.3208647678698977  -1.323713059918954  0.0 
C  1.2662579636186477  2.639983362567986  0.08688139785757744 
H  0.43198046135723933  3.044367591452737  0.15449932927934903 
C  2.3865965023412516  3.441662043644815  0.08203671419114576 
H  2.3206769291060465  4.367773447331545  0.13880208942887987 
C  3.577641547811164  2.8274565827953326  -0.006331897455168982 
C  3.6784825663554472  1.4665054034587026  -0.084138236793197 
H  4.510509157377543  1.0576396935191639  -0.14612947059128983 
C  2.5364846689248424  0.7161215286778524  -0.07065555408670275 
C  2.535771668462732  -0.7226258121670018  -0.0322180614239129 
C  3.6701936654138376  -1.5065709558853362  -0.023325116245249182 
H  4.512322908588484  -1.1145490776455222  -0.07001381692799605 
C  3.5483813136359426  -2.8566443170331204  0.05646467303549822 
C  2.3348117443329857  -3.451803603327564  0.09059082721904574 
H  2.2569286809639664  -4.377607780310628  0.13939712108540997 
C  1.2258403271598681  -2.6544162450245308  0.05166748317483788 
H  0.3833975914306492  -3.0481388846061837  0.06383547799463286 
F  -1.7503655984842916  1.0325672776667385  1.335436050319043 
F  -1.773643158946721  2.7500863475325907  -1.7578466460774667 
F  -2.832044046442646  4.401131971253862  0.2204936077056582 
F  -3.602918747943626  2.7164048346518284  1.2910361616391728 
F  -4.214827904016041  3.101424986834818  -0.721911526982599 
C  -1.3505739520663058  1.3505739520663058  0.0 
C  -2.0921340886770814  2.328243065218488  -0.4374070060916183 
C  -3.1992062099094833  3.1352812712615665  0.07019935948781175 
F  -1.6905869054311835  -1.0923459707198464  -1.3645733953121857 
F  -1.8523613457720938  -2.6713681607072175  1.7975982309566785 
F  -2.8238268610668658  -4.4093491566296406  -0.15064997202095193 
F  -3.5449389297436626  -2.7743846528517926  -1.3277239483687115 
F  -4.245672613359285  -3.0705802774915734  0.6712438319095824 
C  -1.3505739520663058  -1.3505739520663058  0.0 
C  -2.1117149065104335  -2.308662247385136  0.44699495057655847 
C  -3.196038192536367  -3.138449288634683  -0.07288969774097248 
