25

Fe  0.0  0.0  0.0 
C  2.3660258482469527  -0.7405659543491208  -0.4823014478394609 
C  3.4547197016655016  -1.4580572101950393  -0.998397099161332 
C  3.3687541448799467  -2.7993705314032384  -1.0820939174758883 
C  2.2325347277173746  -3.479696873850541  -0.6076041875184562 
C  2.0784110904499076  -4.891749433814887  -0.6534793696280087 
C  0.9293555834392797  -5.464964578612502  -0.21298178781484714 
C  -0.12859917724052483  -4.686356864505067  0.3145049436650744 
C  -0.01356890003389788  -3.3190706675212716  0.39500774400988475 
C  1.191071402734681  -2.680554643883486  -0.07121036857633962 
C  2.2860806537065628  0.768064463640187  -0.450771972942026 
O  1.2678264648602346  1.3202712050938628  0.0 
O  3.262306947274631  2.832586604609108  -0.7911296718346332 
N  1.2678264648602346  -1.3202712050938623  0.0 
N  3.302031333974331  1.4440305201267036  -0.9316318545515805 
H  4.263500856906553  -0.9556466316405805  -1.485239787802693 
H  4.04359601349249  -3.3023338638140145  -1.3735587500333999 
H  2.9056777282411996  -5.446372993106964  -1.0490360880334522 
H  0.9256875623002865  -6.422658380553829  -0.21473887178789244 
H  -0.9175335979426338  -5.090507354905306  0.5596542062393033 
H  -0.7720249060646442  -2.7835781397191997  0.6764273054906742 
H  4.227835773336912  1.0867488887618326  -1.166923027241567 
H  3.080217012483199  3.2168206453446504  -1.6587202939529853 
Cl  -1.5202795795510768  1.5202795795510768  0.0 
Cl  -1.5202795795510768  -1.5202795795510768  0.0 
