62

Ni  0.0  0.0  0.0 
P  1.4135524017524075  1.442903187154287  -6.007949615891074e-16 
N  1.4135524017524075  -1.442903187154287  5.551115123125783e-16 
C  2.000739557020542  4.020371885754041  -0.8664810283131509 
H  2.362885639779943  4.1695794430709  -0.02330919554027401 
C  2.051758995810536  5.014753835820786  -1.8139036184211936 
H  2.434414619503887  5.835209498085127  -1.6025571731843868 
C  2.1125725604117473  -4.827096450065043  -1.0277242174130876 
H  1.4405256188086923  -4.796361532854512  -1.6701766850292192 
C  1.4173893425884563  2.800287332838187  -1.1546543634053612 
C  1.5850307283429874  2.0987848834629985  1.6876636939737044 
C  2.8148401011471185  2.1496562590712016  2.3316072394083123 
H  3.585027450786777  1.8688295455346187  1.891018833501735 
C  1.241251787648861  -2.685148253183333  -0.2544843498253462 
H  0.3912790205989747  -2.9309638790393695  -0.5405667039798564 
C  2.2383446753621197  -3.7834816681406744  -0.14459398236851395 
C  3.9683115935687203  -5.997111867613276  0.02445826367903412 
C  1.5440710854650592  4.807210517831025  -3.062863284241861 
H  1.570408417191373  5.489484566959404  -3.6939638204827445 
C  2.965550119119256  -5.937264744279723  -0.9896765780400999 
C  3.2397814391036235  -3.825090897737296  0.8670439865904207 
H  3.3299835928215558  -3.1237185471807045  1.4715932710489978 
C  2.903039304873669  0.46874759410152844  -0.33459672137413893 
H  3.0266830009457077  0.367175945840744  -1.2912153740729346 
H  3.6826499205298773  0.9165266313592184  0.02936174019631803 
C  2.8875878085746924  2.6125506694143272  3.6161378135626068 
H  3.7199171775908417  2.668266930017059  4.028986889833429 
C  0.9255183846073918  2.5747978420001507  -2.4196233670637195 
H  0.5520550112112445  1.74825576653901  -2.624157462568517 
C  0.9800974123553904  3.5651060121679157  -3.399779940183081 
H  0.6524169567574465  3.4063462408683707  -4.255487152981981 
C  4.06360588260609  -4.911266930857676  0.9331538297511428 
H  4.712398496329518  -4.940074899659784  1.6000043117270137 
C  2.735997274043371  -0.8882831945418309  0.3123521627041029 
H  3.425582115191381  -1.4886434735349443  -0.009489385679875707 
H  2.834051827180766  -0.8031279248786409  1.2739305342670457 
C  1.7771275311979093  2.99608308858614  4.31387145601689 
H  1.8426850611198615  3.2567842557530637  5.20380283635379 
C  0.4443070595621619  2.521464409317276  2.3629857059848924 
H  -0.3841234199533099  2.4883482270083026  1.942536292762496 
C  4.826266044005761  -7.132552207329439  0.0716165706940457 
H  5.497309623398674  -7.178077444632127  0.7143513428388932 
C  2.8717116538960186  -6.998249035276583  -1.9313945436234587 
H  2.2540553814156286  -6.948076046787466  -2.6253203683999424 
C  0.5427087831594902  2.990433877278986  3.6632167619564133 
H  -0.21521872813879406  3.302071202640245  4.10309625120194 
C  3.682373720102259  -8.08832766910513  -1.8246454148929208 
H  3.580449832346665  -8.795318636400651  -2.420913872273767 
C  4.670387036879115  -8.161731731098289  -0.8246414351235709 
H  5.220250051648112  -8.90899777403115  -0.7713380011945865 
Br  -1.5839191898578664  1.5839191898578664  0.0 
C  -1.2937473829822488  -1.2398794889499034  -0.459800567 
C  -1.601562203225019  -1.4938654694550033  -1.7919791134 
H  -1.1309417375171225  -1.0428217585005106  -2.480879663 
C  -2.60218398542082  -2.411889969420291  -2.121542410022 
H  -2.8231586547736818  -2.5626138747145775  -3.032700502 
C  -3.2683208079706407  -3.09759503004543  -1.14306436557 
H  -3.9596020908062854  -3.707191723557817  -1.368328076 
C  -2.9347449854640226  -2.896087320001541  0.14198826503 
H  -3.3668350933519986  -3.405606940434718  0.81710224434 
C  -1.9675509241539992  -1.9516175659140573  0.5112421903 
H  -1.7755298364628027  -1.8022912010877177  1.4301324877 
