59

Pd  0.0  0.0  0.0 
S  2.169681758710659  -3.8062120895703107  -0.06805338719364126 
N  1.861003827985292  -0.013607526532585068  -3.4763858458575214e-15 
N  0.32848165862787515  -2.0315612005370296  1.3232470674751085e-14 
N  2.5444074774502097  -1.1243581459840264  -0.04514070542503341 
C  2.453528893268824  1.215392645028128  -0.014336502867930735 
O  0.2105145133868329  2.0451687270696146  -9.749145934989656e-15 
C  1.6538796124368533  -2.1706404128344454  -0.03676814852156738 
C  1.489395340792954  2.271740157288164  -0.05424597959073905 
C  3.842076148078669  1.472544157220073  0.07740242527842225 
H  4.447051972733003  0.7660772241219304  0.11141895100802238 
C  4.292229427784445  2.7588910603632186  0.11519170344266352 
C  -0.2992305787088114  -3.2565785942213292  -0.02370532152691405 
H  -1.2251868643119697  -3.3466797282560394  -0.020233607589808834 
C  3.340464694330058  3.8031808580817135  -0.04171129376759939 
H  3.6484638714700424  4.679160726034439  -0.0803050474411919 
C  2.00181133525747  3.5859984788317547  -0.13893725936834775 
H  1.4218398465485804  4.3036278241912465  -0.2615561199229135 
C  0.5364982184158337  -4.317080446534523  -0.05130747537184253 
H  0.2604210275499933  -5.205260942267862  -0.059951645806664434 
C  5.738267001168845  3.1104098143378653  0.35124763318106966 
H  5.841764957188144  4.065682679493343  0.34129041482082156 
H  6.279468453558208  2.72363901086033  -0.34136743560460525 
H  6.016178228918377  2.767680356992574  1.204038345230955 
C  -1.7067763473911302  -0.04234679113747225  -1.702767457306349 
C  -2.261986393208506  0.028395310237779803  -4.039170979841911 
H  -2.9627883372178943  -0.3694566111735814  -4.577667947244674 
H  -1.4446333780028875  -0.47307613824827266  -4.193739394751246 
C  -2.055790175902575  1.4488243125701812  -4.4677171959047435 
C  -2.9350138753182584  2.2712217984761542  -4.982315603948662 
H  -3.808692555000789  1.9951692411073925  -5.1204040185184 
H  -2.6792449401373695  3.1403031273193323  -5.208389232779217 
C  -4.079347456725353  0.15051130310269983  -2.2561128346599975 
H  -4.189083896046684  0.01972595387329726  -1.30151568071912 
H  -4.311493171861842  1.0712893687179397  -2.4564000055563318 
C  -5.02669354590172  -0.7505993985415087  -2.9757492086048707 
C  -6.04983605142084  -0.3977566116798532  -3.6153678224364283 
H  -6.275592682728655  0.5029521500104532  -3.6713689834503302 
H  -6.581214683810897  -1.0376216284298687  -4.032755363432546 
N  -2.6288050322642507  -0.0712862960343663  -2.6142266990321925 
S  -1.9856219343642876  2.525757381022231e-15  -0.0143780656357122 
S  -0.014378065635712423  -2.220446049250313e-16  -1.9856219343642874 
H  -4.4844045840416955  -1.2546868458525933  -3.60295030658557 
H  -1.7062864561489197  1.9028408603301457  -3.684493253319668 
N  0.0  0.0  1.91 
N  0.8933389644186569  -0.7371552887905777  2.6440095332211175 
H  1.5099320144974044  -1.2530758232952273  2.2871049624027764 
C  -0.7663416793182811  0.6215796836170676  2.815783703460237 
C  0.7227974541929736  -0.5849030545249028  3.9736319722808124 
C  -0.34240797293756703  0.2686789344414228  4.117570730521722 
H  -0.7222072045876803  0.5659693176153449  4.936163805077258 
C  -1.8954017951770212  1.5255593057956869  2.453865221667929 
H  -1.5634430824911671  2.249783506542984  1.88374906672765 
H  -2.2861956790337774  1.9034115917799712  3.269727465135907 
H  -2.5796062395715005  1.01652320851955  1.9700393646276917 
C  1.6119639267144956  -1.2805207201015756  4.960613966787952 
H  1.7541292634925443  -2.2073773998502064  4.675617875193471 
H  1.1889113768266206  -1.2713385424979888  5.844743842794766 
H  2.4745306529742988  -0.8171347192515566  5.005448963895911 
