57

Pd  0.0  0.0  0.0 
P  1.5492020099070334  1.446400059630807  1.6417518178833359e-15 
N  1.549202009907036  -1.4464000596308066  -2.220446049250313e-16 
N  1.5405300710646057  2.40039197619102  -1.3420021127459283 
N  1.7264615793802696  2.7009041907099745  1.0981765842229079 
C  1.3773995804441481  -2.740755585637813  -0.10011387279379319 
C  2.430632246576921  -3.6589163608378494  -0.1947301075262674 
C  3.697070093929672  -3.2123206242717983  -0.17929097304391262 
C  3.9558228719607653  -1.8197311283102637  -0.10107239725285444 
C  5.252782347430725  -1.2612378541837455  -0.1130653845436842 
C  5.4287062185637  0.09331240800311624  -0.06803052276859023 
C  4.332701966262764  0.9544149824304946  -0.02068735797289567 
C  3.0456193500864206  0.4389187267193888  0.015957689229411876 
C  2.8454863229349403  -0.9493915624218853  -0.020691628740516443 
C  0.5959154624428494  2.287463441023722  -2.445501545062645 
C  -0.14186841805878392  3.6168309885408263  -2.4569749613071776 
C  0.937548392340383  4.593115762312504  -2.018656310176187 
C  1.7644282791174912  3.842589057911585  -0.9839109652605413 
C  1.3162007907806736  3.9779108754797896  0.45856423882074304 
C  1.560879759003583  2.5244372939475745  2.5022616333234904 
C  0.8389773961671128  3.4269723887907046  3.2530504126134083 
C  0.6949940418119427  3.230086466321449  4.635650125907937 
C  1.2655097847503967  2.1455628177256383  5.2427028276528755 
C  1.9767521394697118  1.253890049591765  4.4994416034376865 
C  2.141975654710715  1.438097152755192  3.1401724089233873 
H  0.46731732927460645  -3.0458258924743817  -0.1194429698455397 
H  2.2578134806515995  -4.600595729509657  -0.26558983347776094 
H  4.4272788503883715  -3.8342891308477927  -0.2195621639708485 
H  6.014425349248482  -1.8444920751600176  -0.1514020705696557 
H  6.32038423462853  0.4485080964844461  -0.07522764378836855 
H  4.467975273425917  1.9048649086776628  -0.0110126452693875 
H  -0.032144824645855996  1.5741162635745152  -2.309907407256807 
H  1.0423793231973544  2.165127121399145  -3.2865494663732573 
H  -0.8724384929900257  3.6415932766515864  -1.8346479293517184 
H  -0.45606308365605774  3.865503648366219  -3.329318145131979 
H  0.5573256702279619  5.375065896004209  -1.6117028115931895 
H  1.4984535495936673  4.854866138689448  -2.7524715423928576 
H  2.6967566629398525  4.055463986911929  -1.0682529436716797 
H  1.7569923849111602  4.732071574476464  0.8568864082172752 
H  0.3656212474148113  4.107804602840362  0.49341436545959183 
H  0.43422979855662214  4.189804281428785  2.8336736180685103 
H  0.19297738284939392  3.866021630922301  5.150768617663179 
H  1.168044408810182  2.006478358581362  6.187588526410883 
H  2.369232696821027  0.49255232862881027  4.932950884468875 
H  2.6576470113581863  0.8085053403541052  2.630805535549322 
Br  -1.654629867976521  1.654629867976521  0.0 
C  -1.352040782177733  -1.3199206589279684  -0.4819701001757076 
C  -1.6380700204479186  -1.599217458033982  -1.8139382277462257 
H  -1.1579680913617836  -1.159339363685303  -2.503515938957912 
C  -2.63068216563725  -2.52632649780156  -2.142289956238523 
H  -2.8368222554424674  -2.694399528648736  -3.0538898079700485 
C  -3.3101544432602585  -3.1961573187854975  -1.1619874135498987 
H  -3.9960123560788676  -3.811990145619169  -1.3868663427944008 
C  -2.9974710358883443  -2.9701089012107795  0.12423560353005347 
H  -3.438659168087169  -3.468581175155742  0.8017084178296768 
C  -2.0389854250767776  -2.015940632791841  0.4912562833419403 
H  -1.8619130127668426  -1.8492165108145995  1.4101568590026907 
