118

Pd  0.0  0.0  0.0 
N  2.03913  0.02266  0.0 
O  0.04967  -2.06136  0.0 
N  0.3112  2.0387  0.0 
C  1.09597  -2.90595  -0.04999 
C  2.40612  -2.47387  -0.26617 
C  1.65849  2.42643  0.0948 
C  2.80986  -1.07  -0.53584 
H  3.88336  -0.89316  -0.62544 
O  4.24796  -5.65563  0.00467 
C  2.60844  1.34449  0.03813 
C  0.84813  -4.2814  0.10995 
H  -0.16554  -4.63463  0.25358 
C  3.21909  -4.76872  -0.06271 
C  3.4459  -3.40841  -0.27749 
H  4.45114  -3.04985  -0.42626 
C  3.91336  1.69199  0.04014 
H  4.68787  0.98418  -0.0027 
C  1.90221  -5.20855  0.10209 
H  1.69672  -6.26097  0.24852 
C  1.07264  4.77858  0.04624 
H  1.32987  5.8332  0.05099 
C  -0.70286  3.03975  -0.05064 
H  -1.74729  2.75512  -0.1058 
C  2.04026  3.85403  0.09855 
C  3.48725  4.14001  0.16227 
H  3.8522  5.15996  0.22548 
C  4.36018  3.11562  0.13366 
H  5.42798  3.31289  0.18418 
C  -0.35799  4.35174  -0.02951 
H  -1.1277  5.11528  -0.07201 
C  5.57388  -5.29506  0.19622 
H  6.21094  -6.19975  0.21152 
H  5.68044  -4.76855  1.17161 
H  5.93859  -4.63492  -0.61934 
O  -1.95687  0.0  -0.04313 
N  -0.04313  0.0  -1.95687 
N  -3.36211  0.18579  -5.31042 
N  -4.66478  0.22634  -5.73666 
C  0.96828  0.02727  -2.86903 
H  1.99885  0.02397  -2.57509 
C  0.68101  0.05735  -4.23984 
H  1.47898  0.06475  -4.96005 
C  -0.64943  0.087  -4.67397 
H  -0.85369  0.129  -5.73799 
C  -1.69682  0.09101  -3.73262 
C  -3.0483  0.15332  -4.07199 
C  -4.0363  0.17617  -3.04369 
H  -5.09274  0.23834  -3.29197 
C  -3.68877  0.12516  -1.69469 
H  -4.45134  0.15469  -0.93526 
C  -2.3425  0.04855  -1.33613 
C  -1.34275  0.03119  -2.32371 
C  -4.96659  0.15542  -7.1109 
C  -3.95266  0.04827  -8.08203 
H  -2.90738  0.01974  -7.79505 
C  -4.28955  -0.01844  -9.43459 
H  -3.50078  -0.09786  -10.17495 
C  -5.63591  0.03103  -9.82393 
C  -6.64297  0.13095  -8.84784 
H  -7.68285  0.16053  -9.12958 
C  -6.30217  0.19091  -7.49895 
H  -7.08096  0.2674  -6.75038 
C  -6.00188  -0.02925  -11.27329 
H  -5.25556  0.52541  -11.87939 
H  -6.99351  0.44221  -11.43738 
H  -6.03807  -1.0882  -11.5975 
N  -0.71933  -0.07375  3.14794 
C  0.0  0.0  1.95 
C  -0.14443  -0.04607  4.47722 
C  -1.09601  0.158  5.48038 
C  -0.79024  0.07002  6.82768 
H  -1.56638  0.19541  7.57137 
C  0.51611  -0.18334  7.22662 
H  0.7468  -0.26842  8.28173 
C  1.52576  -0.31308  6.26988 
H  2.5374  -0.49279  6.62524 
C  1.24027  -0.23331  4.88096 
C  2.42506  -0.41086  3.96683 
C  3.44466  0.58889  3.85783 
C  4.52654  0.41102  2.96233 
H  5.27804  1.18516  2.85185 
C  4.6766  -0.77847  2.241 
C  3.73358  -1.79278  2.4496 
H  3.87832  -2.7349  1.9772 
C  2.6027  -1.61601  3.26491 
C  -2.47026  0.46158  5.00578 
C  -2.73659  1.65907  4.26146 
C  -4.01107  1.83806  3.71063 
H  -4.22966  2.74325  3.15437 
C  -4.99011  0.86559  3.86121 
C  -4.70644  -0.32751  4.53374 
H  -5.46367  -1.10085  4.60831 
C  -3.45451  -0.54142  5.11567 
C  3.41879  1.83752  4.70168 
H  2.45738  2.37291  4.57691 
H  4.25334  2.52616  4.44245 
H  3.55763  1.55632  5.76455 
C  5.87532  -1.00981  1.31912 
H  6.07283  -2.08768  1.1698 
H  6.76172  -0.43416  1.64664 
H  5.74882  -0.68257  0.27797 
C  1.62947  -2.75536  3.42358 
H  1.9  -3.61801  2.78341 
H  0.60772  -2.43394  3.14393 
H  1.6266  -3.09486  4.48074 
C  -1.69764  2.72621  3.99941 
H  -1.37377  2.67653  2.93601 
H  -0.79758  2.62181  4.63761 
H  -2.12515  3.73412  4.17707 
C  -6.36837  1.09914  3.29902 
H  -7.03879  0.23944  3.51074 
H  -6.31129  1.25228  2.20375 
H  -6.80022  2.002  3.7802 
C  -3.13611  -1.86818  5.74047 
H  -2.20247  -2.29045  5.30403 
H  -3.94267  -2.60745  5.56022 
H  -3.00148  -1.72985  6.83069 
