19

Co  0.0  0.0  0.0 
S  1.493279650634803  -1.3100060629630699  4.430702515054917e-15 
N  1.4932796506348036  1.3100060629630699  -6.045186830371976e-16 
N  3.6469595768883325  0.24631122261385796  -0.01598849171050685 
C  2.3274730501319776  0.19624455356986203  -0.023675777274045937 
C  2.1021408675947275  2.4597938063824394  -0.04743219966099028 
C  3.47259076541542  2.6432628770952635  -0.033402671690611035 
C  4.200709500507669  1.4498229425778946  -0.028709026321309644 
H  1.5511166664419642  3.2591689120452307  -0.08085225637195413 
H  3.914984746012886  3.5324423953681023  -0.01459415725656483 
H  5.184589227198878  1.507324153549102  -0.007646639398422366 
S  -1.5132085117392118  1.5132085117392118  0.0 
O  -0.6769219669440957  2.25898700883017  -1.072067156605125 
C  -2.942263818104853  2.5939501069644515  0.23587334673126015 
H  -2.645127398057148  3.454286311971358  0.5997549651671858 
H  -3.56974726186127  2.174640530374229  0.8615729765787725 
H  -3.3871014427084063  2.7392979295355655  -0.625134131872093 
N  -2.126393359901875  -2.126393359901875  -2.220446049250313e-16 
C  -1.3152186130069785  -1.3152186130069785  0.0 
