68

Pd  0.0  0.0  0.0 
N  1.9178342317595212  -0.010176513042852942  4.805184028455755e-16 
C  0.23800950382672825  -2.050055086248992  -5.126107871511464e-15 
C  -0.678899846217492  -3.0940150545013436  0.02500836836010986 
C  -0.2212879210077856  -4.407080255021748  0.009968917300481307 
C  1.0965569425382005  -4.681727641744972  0.0022127203222783525 
C  2.0469604395136085  -3.6777600227077034  0.01578043426209239 
C  1.6081214931776084  -2.3451224582263226  0.01323074568425051 
C  2.541581007243831  -1.191996097351643  0.013864350584250151 
C  3.929419171019364  -1.2027904682363646  -0.00344035182167481 
C  4.612887059030948  0.011475637356888502  -0.00932430154783805 
C  3.9109083546404557  1.2126903901870587  -0.027484317114999005 
C  2.5435999302001377  1.20482565837162  0.006775257430018812 
C  1.6083000395518727  2.3423759394634245  0.0023647539102092745 
C  2.054393486619835  3.6560451999011434  0.023946011149786423 
C  1.1311012175852182  4.696163333648076  0.02300590918465015 
C  -0.21344803305785032  4.421522569141329  0.016133277497168284 
C  -0.6750520707942111  3.1004926469232474  -0.008680971433164614 
C  0.2441562644137506  2.060231599291845  4.643854745189912e-15 
H  -1.6110745783217013  -2.9114055694880725  0.051888748000895345 
H  -0.843275904470284  -5.122150629338209  0.004207129108272569 
H  1.3815876844629036  -5.58780776964255  -0.00932018854594065 
H  2.9740381837102827  -3.8861734572140154  0.022921619912030875 
H  4.404994504800979  -2.026440188249116  -0.016043947396900533 
H  5.562574811162853  0.017814627492752866  -0.004028014668826648 
H  4.380407000664244  2.03622967666424  -0.060783341282149024 
H  2.985742154378551  3.8447499015572966  0.041558354461421726 
H  1.4264499094373018  5.598802710447  0.020155352517284373 
H  -0.8390085890705172  5.136380374877056  0.02989984351145722 
H  -1.6064459214112017  2.918411339159296  -0.031112921767997306 
N  0.47265759243931643  1.470935619174018e-16  -1.8721025506925282 
C  1.6957999818472644  0.00192849091132771  -2.4168525724056455 
H  2.4561875739141206  0.01701958675765864  -1.847803656532051 
C  1.8759137345377042  -0.01750301841596789  -3.785258149176295 
H  2.745937423380468  -0.016037016275240738  -4.166580941165043 
C  0.7542100669036437  -0.03898169501837093  -4.573523515958165 
N  0.9044887818034449  -0.060247452262217484  -6.045415691158828 
O  2.021903424479505  -0.05737304092199873  -6.47038057687603 
O  -0.08441136704104402  -0.07912048458352643  -6.736258853002663 
C  -0.5213430641072545  -0.041587339299455954  -4.044276578710352 
H  -1.2923632043980546  -0.056561504022667734  -4.5998545909253945 
C  -0.6219360845427034  -0.02136349071990679  -2.6677085672454885 
C  -1.9150590248511896  -0.021363490719907556  -1.9585766322375873 
N  -1.8326575924393163  -1.0790486434468649e-16  -0.6078974493074722 
C  -2.9495521592934666  0.001928490911320377  0.13059860176830584 
H  -2.8785144829239946  0.017019586757661097  1.077678116572736 
C  -4.200220895072876  -0.017503018415973185  -0.45318432003501186 
H  -4.989477008399672  -0.01603701627524399  0.07542052142405264 
C  -4.261858360623259  -0.03898169501836398  -1.8227763137659787 
N  -5.583747679882621  -0.06024745226222087  -2.4873505347503375 
O  -6.542800183421999  -0.05737304092199754  -1.7736076306074746 
O  -5.634633913930523  -0.07912048458352634  -3.692588424063243 
C  -3.1298599799044635  -0.041587339299455704  -2.6137995603699338 
H  -3.1838229323838383  -0.056561504022664154  -3.5626024820299502 
N  0.0  0.0  1.91 
C  -0.9558892668779518  -0.6351664359428396  2.606247339757361 
H  -1.6412375248898  -1.0869209604112657  2.1278848152401997 
C  -0.9887127592035931  -0.6633050987635244  3.9853752975648344 
H  -1.688065522865061  -1.123252837281248  4.434585047894788 
C  0.006209992530136543  -0.015755966872378013  4.7208871260690435 
C  1.0264847536912791  0.5869233491436447  3.992129708416207 
H  1.7531863517761765  0.9976505466540657  4.44493015736264 
C  0.9828347964500802  0.5887627400870801  2.61773987366269 
H  1.680647409261261  1.0275042618222185  2.1441895336700254 
C  -0.03671636054448735  0.0674436436398349  6.214576251363301 
H  0.7871815154874275  -0.3109699251387532  6.586723897915516 
H  -0.807602799485434  -0.438090521387809  6.547799834332378 
H  -0.11832058533003509  1.0051772044509717  6.487579565309518 
