27

Ru  0.0  0.0  0.0 
N  1.46568  1.3013  0.0 
N  1.46568  -1.3013  0.0 
C  2.74875  0.71871  0.08892 
C  1.29712  2.74761  -0.05778 
H  0.32313  3.21818  -0.27096 
C  2.55972  3.55606  -0.0397 
H  2.49732  4.63684  -0.12459 
C  3.74974  2.95742  0.07618 
H  4.65165  3.56025  0.09231 
C  3.85466  1.4848  0.1501 
H  4.84405  1.06361  0.22479 
C  2.68796  -0.73842  0.08778 
C  3.68283  -1.69931  0.13821 
C  3.0442  -2.91414  0.04809 
H  3.51568  -3.88585  0.03998 
C  1.68414  -2.65483  -0.04919 
C  5.16276  -1.5116  0.25023 
H  5.68183  -2.4924  0.26378 
H  5.39945  -0.9814  1.19799 
H  5.53723  -0.93052  -0.61561 
C  0.72293  -3.80108  -0.20864 
H  -0.31879  -3.56408  -0.36621 
H  0.78518  -4.46314  0.67749 
H  1.01134  -4.37632  -1.11302 
Cl  -1.58392  1.58392  0.0 
Cl  -1.58392  -1.58392  0.0 
