80

Ni  0.0  0.0  0.0 
P  2.203243119092518  0.9302449660989521  1.1985372676806558 
P  1.32393724737995  -1.5255458580455725  1.2077579257361896e-15 
N  1.3239372473799504  1.5255458580455716  3.521911972423012e-17 
C  2.7986692338618218  -0.7051175448623365  0.7183283448219289 
H  3.133038393623555  -1.2041818968021627  1.5050496726268574 
H  3.5247110511382314  -0.6337913999115701  0.04915405466093289 
C  3.649207818548903  1.9192383267658786  1.6314099978021341 
C  4.914643630440861  1.3246080308518888  1.6504107125951455 
H  5.008980007943987  0.39797197298140125  1.4602155650917585 
C  6.034094125432264  2.0907824390715364  1.947168973563251 
H  6.893799544049864  1.6881297906700283  1.9666178278933515 
C  5.897023954044713  3.441111997593705  2.2148388289768106 
H  6.66603752194611  3.9726418304882984  2.387464606677027 
C  4.644214181494946  4.015950885834981  2.232201327915019 
H  4.553465029405086  4.938848308141077  2.439870582490021 
C  3.5214482426353513  3.265111781943695  1.949206651985471 
H  2.661995293442618  3.6684429710750934  1.972824441843937 
C  1.1448841077372942  0.7514652863131133  2.6418030190857813 
C  0.0295966924250739  1.572462871141262  2.7723503551466147 
H  -0.1741205494335316  2.2141362465022  2.100658383538778 
C  -0.7867416865561168  1.449004451974964  3.895048279674569 
H  -1.5473252970799531  2.0087087935369423  3.9899066553679776 
C  -0.4932935236029594  0.5157539485623882  4.867590779280441 
H  -1.0574297349572654  0.4304547624948447  5.628023980748495 
C  0.6187634537315443  -0.29589466787862084  4.735838843465124 
H  0.8184152859203258  -0.9358290689661801  5.410934990845911 
C  1.4450577096915111  -0.18416435567524392  3.6297791886984703 
H  2.2105511737033128  -0.7398904228589123  3.5450003304388478 
C  0.8469167468076423  -2.7045726670490877  1.291691095302888 
C  -0.30903730183764355  -2.519107327867164  2.045607447017591 
H  -0.9048273703849723  -1.8089071432669865  1.8344019735699026 
C  -0.589857024072592  -3.365146972098851  3.100042999335608 
H  -1.3735222120164436  -3.231525977407055  3.618945844753242 
C  0.25228245526940074  -4.389891204961696  3.397203283606507 
H  0.04846081791120205  -4.969391578770579  4.122168135789009 
C  1.402468052604923  -4.598421432566625  2.6617343135900797 
H  1.9825378241091305  -5.318376718871228  2.8808372709163605 
C  1.7114317134455324  -3.7611508233196593  1.605000338944034 
H  2.5021234754754946  -3.9007188237682167  1.0970245415788757 
C  1.973759013315986  -2.518506182385261  -1.3800215276592753 
C  1.0736562424682226  -3.1481945230757726  -2.245744945103135 
H  0.13881079960778142  -3.067784449295917  -2.0954033407554937 
C  1.5299242159795154  -3.880401463371259  -3.3103682131801855 
H  0.9092160002482257  -4.2988974998115665  -3.8946592351952645 
C  2.881273882278031  -4.0136645435519185  -3.537832651841913 
H  3.1928996183733487  -4.518697873711559  -4.279023447812134 
C  3.781288281312415  -3.406952208345046  -2.6806236552497045 
H  4.715050923856443  -3.5040083926735135  -2.8312193207676786 
C  3.3338342958718394  -2.658854352760355  -1.6047264160195884 
H  3.958027397958566  -2.2434763740138974  -1.022127517908808 
C  2.006106505107652  2.269443492466011  -1.108218729906213 
H  2.7654395047287528  2.769250054149339  -0.6911195371657801 
C  1.0844991780930513  3.3036246458409955  -1.704323600543099 
H  0.3198441364641107  2.8561947069767055  -2.122817515814718 
H  1.5693067977517812  3.8222718899255876  -2.379630277634568 
H  0.7647946803475572  3.903352104163438  -0.9979324554574425 
C  2.6138195907127386  1.3595688153597554  -2.171259809801625 
C  1.8257034336000224  0.6255843670426655  -3.042708633615491 
H  0.8790999480731949  0.6720107721398793  -2.9691299675618392 
C  2.394466774917343  -0.1737189010755283  -4.017460354388106 
H  1.8394983044559543  -0.690319851380398  -4.589895079870283 
C  3.7612415165755575  -0.22310645609568663  -4.160116637019923 
H  4.148602942060618  -0.7514664170559168  -4.84796970105343 
C  4.576312340693765  0.498354268401998  -3.2980562245901694 
H  5.5209712121902905  0.45922079385900166  -3.3894388688567068 
C  4.003707375865804  1.2771971453524114  -2.3015158755435285 
H  4.561999319048686  1.7594129903368791  -1.701845161715515 
Br  -1.5839191898578664  1.5839191898578664  0.0 
C  -1.308147545195113  -1.308147545195113  0.0 
C  -2.5481111008682706  -1.081588847540519  0.5874691967409313 
H  -2.7399447190521347  -0.23895174706744582  0.9782000501948406 
C  -3.514692573752534  -2.090568128666735  0.6049610958635798 
H  -4.3504064840370384  -1.9365173000894942  1.0287619599160838 
C  -3.2692344052199704  -3.300825455744854  0.016423527177974795 
H  -3.920165040096455  -3.990528127682657  0.045080339651694334 
C  -2.0939695739763726  -3.5035118821402764  -0.6007549227026172 
H  -1.9425337635726068  -4.327915038834382  -1.0474288760065322 
C  -1.0854604411866036  -2.53050399443706  -0.5998012209931928 
H  -0.24896772463074335  -2.712575304189299  -1.0129111498427692 
