102

Pd  0.0  0.0  0.0 
O  0.05022038169542031  1.8745881039659333  1.1649815531365015e-14 
O  0.30359616618577323  -1.888956096894991  -1.6533037268060627e-14 
C  2.8082050650779227  1.0502576851745467  0.07425750388165234 
N  2.0461834521188065  0.014367992929057494  4.883221736695614e-15 
C  3.363308872354846  3.491053789161057  0.06458476327043328 
C  1.024116782184244  2.7680950604451326  0.0639051628445758 
C  0.6187866499392347  4.123079263526446  0.18858484560941893 
C  2.3786139213162727  2.4262356172936035  0.04754908717603004 
C  1.5371078844307635  5.113697362910157  0.24610433322324088 
C  2.9364798004140154  4.836344424487063  0.1806551292140262 
C  4.75543153734487  3.2612836944047543  -0.04194973431956112 
C  5.657548780653612  4.29586379136095  -0.015936808549026873 
C  3.8860292682831803  5.87885603905405  0.22755621195541745 
C  2.652358425651502  -1.3420321575926173  0.1080710096529726 
C  1.5908429885967634  -2.2738613216582637  -0.473032531801735 
C  5.225407912733722  5.615961317369532  0.14773420934805376 
O  3.4046505532765527  -2.9178301170374645  1.7742486519597076 
C  2.8540993611863836  -1.622850002631693  1.598566814020473 
C  3.9603915156753127  -1.5011751190433802  -0.6650079211318715 
H  3.7217279392319336  0.8972206131030683  0.15116395984722134 
H  -0.28644873225330447  4.329396196036741  0.2323436868448615 
H  1.250634333700283  5.994968564292411  0.3288095588510581 
H  5.066700808790731  2.3894916523691876  -0.13260780675119316 
H  6.565270366098258  4.117633916702992  -0.10756292435268415 
H  3.598506877634321  6.758615566776189  0.31359532084017583 
H  1.610144479325057  -2.2289971347791733  -1.4425433296742198 
H  1.7765261285442466  -3.187709419406771  -0.2091175345380745 
H  5.843084625793654  6.308385198331753  0.2021041202979029 
H  2.946303983696815  -3.339052692628074  2.3087654935721114 
H  3.450064877734529  -0.959249413135955  1.9787300825070646 
H  2.0016124871987984  -1.5650519383799444  2.0600255483051613 
H  4.202332994593056  -2.4289252560498054  -0.6942223707014812 
H  4.654288468651039  -1.0014393687935381  -0.22686294675326435 
H  3.8437361414473203  -1.172168579740151  -1.5594610449787496 
N  -1.9308415399518863  -4.440892098500626e-16  -0.06915846004811366 
N  -0.0691584600481141  4.440892098500626e-16  -1.9308415399518866 
N  -3.6609147462497935  0.30407776169072015  -1.4765603876066098 
C  0.9109704763900317  -0.17436956885331772  -2.8007906254819366 
H  1.783280123478408  -0.09686956456359745  -2.48847564196105 
C  0.7310584263806821  -0.4614420143312193  -4.139694070584951 
H  1.4568909093481712  -0.5393791393033213  -4.714462842544875 
C  -0.5527327118753625  -0.6284084651820346  -4.5907056199110965 
H  -0.7143485942217008  -0.8480062121001687  -5.478022511512906 
C  -1.6143814699164978  -0.4621319260921097  -3.6930070919531035 
H  -2.4914478884526132  -0.5941737847375475  -3.971348420256544 
C  -1.3406367938981425  -0.10332796978895745  -2.3929381502070006 
C  -2.3579829421308762  0.05854128908707984  -1.3222115475175134 
C  -4.342062446142985  0.16460784847880233  -0.16638642807341308 
H  -4.889825317806384  0.9606876150632853  -0.0038280026939656597 
C  -3.114571037817002  0.18024754583904012  0.8101709651976658 
H  -3.0590797594474783  1.072816066686939  1.2088461006354037 
C  -3.1915930470299574  -0.8177171931459181  1.923891764967322 
C  -3.7395189422232336  -0.44750011330619077  3.156859119430359 
H  -4.021116624099751  0.4317044501214651  3.2771756237421323 
C  -3.8775757704723457  -1.3352361190541076  4.195925333043619 
H  -4.252087433713969  -1.0609252915359595  5.000838865047095 
C  -3.46072559188603  -2.613964365602768  4.032101372368881 
H  -3.55636820925884  -3.222115930484887  4.728590039809697 
C  -2.8998262304292544  -3.01800307739745  2.8476256293970366 
H  -2.609297969351703  -3.8951267966579977  2.745900113296919 
C  -2.7682710133424786  -2.130852302952214  1.8173734135496236 
H  -2.384307661971794  -2.4182847303789576  1.0202386479875065 
C  -5.227446340866546  -1.0621355495004796  -0.1211277882526185 
C  -6.31427637358711  -1.0657456551970566  0.6996383581700412 
H  -6.496028215832421  -0.31872919625219953  1.2231201801141525 
C  -7.159545373563618  -2.175074762397241  0.7634204841711576 
H  -7.8870473603108096  -2.1768008468366262  1.3424136878543755 
C  -6.9078356534889895  -3.2583931192772315  -0.02743779293468873 
H  -7.481845367220626  -3.988857912355975  -0.0022867568905859947 
C  -5.836382496879111  -3.280429244549283  -0.8445828182354258 
H  -5.676266159467903  -4.028232670350569  -1.3738720159845421 
C  -4.949966284448039  -2.176724802344804  -0.9087255699495602 
H  -4.201945097281855  -2.1961059284817543  -1.4613510267466374 
C  -4.416378928175214  0.5023915490287627  -2.733275582700321 
H  -4.6362964316758415  -0.3617917199124677  -3.1153638569722952 
H  -3.858653434132691  0.9767167260290468  -3.371252345410907 
C  -5.702811544502329  1.2937194202772544  -2.507502302981197 
C  -6.930807798691077  0.6652245430867907  -2.632284389210608 
H  -6.975444884456779  -0.24667916075971486  -2.8061178310029464 
C  -8.091327249188932  1.4054417407252489  -2.5004971920462045 
H  -8.920209116323704  0.9956790898849676  -2.5990499206306246 
C  -8.00889079656731  2.755628259909248  -2.2168142093120204 
H  -8.78489898652018  3.2634949291279893  -2.1393481172286295 
C  -6.821552072088528  3.3311358382517793  -2.056255993628926 
H  -6.780712817817113  4.232359024607755  -1.832996920610717 
C  -5.65165990345054  2.6254920258233407  -2.2092354816035624 
H  -4.8306892792823275  3.051179765370597  -2.108183996448674 
N  0.0  0.0  1.91 
C  -0.06607728724215661  -0.00227094029308883  3.377311672733814 
C  -0.7586250522957476  0.9882311336092666  4.028889208192496 
H  -1.2111214168426552  1.6582090435558308  3.531698409549292 
C  -0.7946662425281353  1.0069810044629166  5.428520393522976 
H  -1.2840098643901838  1.6843257613729414  5.881464142822414 
C  -0.1123169803078945  0.028887543111711045  6.153943666660467 
H  -0.12248957083072454  0.033650662225824135  7.1044938500271115 
C  0.5885563744045594  -0.9610669220467717  5.452138203895397 
H  1.0584590764557997  -1.6307041236373092  5.936310042038569 
C  0.6090501929727885  -0.9825262288514568  4.0931588105446535 
H  1.08418886467919  -1.665098457876485  3.6349975018193517 
H  0.8850189021489745  0.6412648732139427  1.7429422697959358 
H  0.12403300377618626  -0.7998833488473178  1.3516077523719954 
