55

Fe  0.0  0.0  0.0 
O  0.26270253292422396  -2.003640854291273  1.910709772822602e-15 
N  2.144954617397717  0.02560126790488934  -2.39011475402347e-15 
N  -0.007657150321940698  1.978039586386384  4.794049812008675e-16 
N  -0.8372000548303371  3.9977157188409898  -0.11603361397877972 
C  1.245830723821546  -2.794498553856609  0.37943078328093743 
C  1.0012359519343825  -4.12651573958245  0.7008836639593927 
C  2.0304615762640843  -4.960737278881084  1.0886387510870152 
C  3.322810888335221  -4.512176600226777  1.1196139533373124 
C  3.598399648484026  -3.2256086332032416  0.8016981916824855 
C  2.580949145862127  -2.3237791524372367  0.44825072410666367 
C  2.940454677384115  -0.9647998942457873  0.1939887949656498 
C  2.8093608134789925  1.317912995423529  -0.2569886680898617 
C  2.3485956633965475  2.4142942206405547  0.6865305396961348 
C  0.9705123399359679  2.8778816397424807  0.35939265064893505 
C  -1.0855344451190656  2.7143370240334543  -0.29164709954873713 
C  0.4634521834894313  4.126911264498089  0.2919386349991882 
H  0.16676018222130629  -4.4825473412885275  0.6200365344594903 
H  1.8444609437780815  -5.841378968821859  1.2821704504364075 
H  4.005146313709905  -5.090385500923046  1.2811638045732738 
H  4.486482494170822  -2.8147566094838754  0.8237794915206477 
H  3.8007909964849054  -0.8494081440632777  0.26190596529775756 
H  2.605255114053243  1.6251947640092277  -1.1259314499557163 
H  3.767792344725006  1.162845542372447  -0.1171347982196535 
H  2.408948665306646  2.045268151519207  1.5463074441715265 
H  3.045907513520871  3.216838746383448  0.6766853441010102 
H  -1.955624096306283  2.338560475718569  -0.7358877602648146 
H  0.8151653194155136  4.958882318272234  0.45806863138449133 
H  -1.3888281852177207  4.662766154919712  -0.1668833262377693 
N  0.47045720657658524  3.6889477499048756e-16  -1.870895887477482 
C  -0.6145330790369603  0.0838315693522655  -2.7036392982014656 
C  -0.40230865973503915  0.27925077232850315  -4.06313652179559 
H  -1.1334409568038648  0.3438249339104445  -4.6347264026007515 
C  0.8671147198491775  0.3818802595042243  -4.577561756136864 
H  1.0017840399490268  0.5315740349355551  -5.485105340666525 
C  1.9198885507850447  0.25830755747861794  -3.7283805103413754 
H  2.7883132535927597  0.30445656956969686  -4.056075786835154 
C  1.7040238627467177  0.06084415773526449  -2.3870362397605858 
H  2.4357502887991664  -0.03207476061725516  -1.8196143050165023 
C  -1.905217932257118  0.005526751862678762  -2.00894515310877 
C  -3.1127035794900624  -0.04875536603694219  -2.6963409949661328 
H  -3.13565088062548  -0.07806027391840967  -3.625396485098287 
C  -4.280897605486492  -0.05817669079552209  -1.9537312816806347 
H  -5.100034816619997  -0.08383644576858722  -2.3945535999803758 
C  -4.258664869839526  -0.03400691810875061  -0.579000730789317 
H  -5.057201182119499  -0.02445501897677777  -0.10139134102273584 
C  -3.051904568825143  -0.021836991217453028  0.09693835579694143 
H  -3.044921461614313  -0.02715503268088765  1.0267722359328988 
C  -1.830457206576585  -3.2970607741777225e-16  -0.6091041125225181 
N  -0.0067905356641118075  -0.028323019709330294  3.0491377288018944 
C  0.0  0.0  1.91 
C  0.00027657175523719546  0.001819105800837273  4.486687626461956 
H  0.6691269699749678  -0.6301874861933178  4.822689698594319 
H  -0.88445613311643  -0.24985076267754044  4.822392151648225 
H  0.22184312705033715  0.9065421627793524  4.793014627795678 
