83

Pd  0.0  0.0  0.0 
O  0.09851  1.91702  0.0 
O  0.34268  -1.90203  0.0 
N  1.95882  -0.01499  0.0 
N  2.47045  -1.28624  -0.02268 
N  2.82102  -6.33085  -0.00228 
H  3.12352  -7.31367  0.00763 
C  0.7476  4.25315  -0.00269 
H  -0.3573  4.3608  -0.00559 
H  1.16196  4.73613  -0.91199 
C  1.11287  2.80659  0.00764 
C  2.39933  2.47062  0.0242 
H  3.15634  3.2505  0.02055 
C  2.88401  1.08218  0.05461 
C  4.38946  0.78232  0.00936 
H  4.62227  -0.30294  0.01542 
H  4.86872  1.22205  0.90549 
C  1.62667  -2.2389  -0.02112 
C  2.01466  -3.64398  -0.02024 
C  1.05303  -4.58573  -0.01448 
H  -0.00197  -4.31817  -0.01105 
C  1.40624  -6.03337  -0.01102 
H  0.65826  -6.85205  0.00046 
C  3.80545  -5.30272  -0.00466 
H  4.85763  -5.56124  0.00335 
C  3.44551  -4.01667  -0.01545 
H  4.21105  -3.24372  -0.01554 
H  1.15462  4.74125  0.90781 
H  4.82984  1.207  -0.91515 
N  -4.02815  -0.07903  0.13893 
N  -2.86606  -0.03004  0.91222 
N  -1.91321  0.0  -0.08679 
C  -2.42986  -0.07129  -1.34713 
C  -3.74282  -0.11938  -1.2556 
H  -4.46383  -0.18277  -2.05528 
C  -1.42293  -0.06538  -2.4008 
C  -0.08679  0.0  -1.91321 
C  0.96397  0.0556  -2.84194 
H  1.99296  0.12556  -2.52655 
C  0.67183  0.0317  -4.21896 
H  1.47394  0.083  -4.94269 
C  -0.65346  -0.06014  -4.67352 
H  -0.86689  -0.0858  -5.73481 
C  -1.70868  -0.10842  -3.76273 
H  -2.73269  -0.17228  -4.11055 
C  -5.64945  -1.56935  1.13847 
O  -4.90232  -2.59354  0.64735 
O  -6.62186  -1.78811  1.84256 
C  -5.3388  -0.15829  0.73479 
H  -6.12184  0.20005  0.04801 
H  -5.3349  0.49253  1.64353 
C  -5.18196  -3.91848  0.89687 
H  -4.49219  -4.55631  0.30644 
H  -6.22614  -4.15081  0.59271 
H  -5.04808  -4.13127  1.9772 
C  -0.07486  0.69851  3.10935 
H  -0.13097  1.76041  3.27961 
C  0.01799  -1.54595  3.46566 
H  0.05115  -2.53741  3.91522 
C  1.17865  -0.10213  6.03233 
C  1.22012  0.10165  7.4716 
C  2.43053  0.25644  8.14123 
H  3.37521  0.18635  7.60339 
C  2.42837  0.53361  9.50059 
H  3.37383  0.66423  10.01094 
C  1.23061  0.63941  10.20147 
H  1.24435  0.86684  11.25503 
C  -0.0072  0.45946  9.54015 
C  -1.23117  0.57451  10.21339 
H  -1.24805  0.80992  11.26465 
C  -2.43784  0.39461  9.53145 
H  -3.38005  0.4846  10.0486 
C  -2.44016  0.10749  8.17297 
H  -3.38073  -0.02332  7.64665 
C  -1.22657  0.01874  7.49118 
C  -1.20877  -0.20096  6.05839 
C  -0.0065  0.18685  8.16602 
N  0.0  0.0  1.91 
N  0.0281  -1.33723  2.24728 
N  -0.03674  -0.32663  4.08257 
N  -0.01979  -0.19015  5.41277 
O  2.22166  -0.1688  5.38354 
O  -2.24872  -0.3645  5.43399 
