80

Pd  0.0  0.0  0.0 
P  2.9153215570795754  -0.9302449660989522  -0.3529258943163102 
P  1.4713292748395919  1.5255458580455712  2.630772977376621e-16 
N  1.471329274839592  -1.5255458580455716  -3.3306690738754696e-16 
C  3.0627720779120136  0.7051175448623357  0.39766801163326765 
H  3.8246084364870034  1.204181896802162  0.009932863141261405 
H  3.1888154350723372  0.6337913999115692  1.3769759423487615 
C  4.301240007537612  -1.9192383267658784  0.2449225490510759 
C  5.282833503405342  -1.3246080308518886  1.043773617806374 
H  5.232844276937905  -0.3979719729814015  1.2501098082612638 
C  6.331134867662716  -2.090782439071536  1.5360125088800434 
H  7.002208908899989  -1.688129790670028  2.073721813163213 
C  6.398187891100333  -3.441111997593704  1.242858495724494 
H  7.098248172492498  -3.972641830488297  1.6049318711060092 
C  5.44964032574412  -4.015950885834979  0.42426745080502537 
H  5.513609665821573  -4.9388483081410754  0.20685114177826736 
C  4.407646246062684  -3.265111781943694  -0.08064608434390774 
H  3.764448312900581  -3.668442971075092  -0.6511840678733852 
C  3.0322848600941557  -0.7514652863131133  -2.1388316622233754 
C  2.261839343211199  -1.5724628711412616  -2.9557296553787813 
H  1.6740276052424496  -2.2141362465021994  -2.5721306719871895 
C  2.358144179595262  -1.4490044519749636  -4.340498357085329 
H  1.8364771197968266  -2.008708793536942  -4.90205780964393 
C  3.2080767828092256  -0.5157539485623881  -4.896884291373886 
H  3.264720412837002  -0.4304547624948445  -5.842029686555719 
C  3.975273338833712  0.29589466787862073  -4.081140006776318 
H  4.562158954323935  0.9358290689661799  -4.469959935066231 
C  3.8972900203348058  0.1841643556752437  -2.702717444798002 
H  4.429197235032283  0.7398904228589118  -2.1457233575714274 
C  1.9361934027254741  2.704572667049086  -1.2961156531173925 
C  1.535289316882158  2.5191073278671627  -2.6166820247611504 
H  0.9431273841758464  1.8089071432669854  -2.837855719506753 
C  1.9979470373888617  3.3651469720988496  -3.604933958249706 
H  1.7311689945642301  3.2315259774070535  -4.5061668724534885 
C  2.834074254690168  4.389891204961694  -3.2912551197821758 
H  3.143936246445657  4.969391578770577  -3.977624439333029 
C  3.2424171988490462  4.598421432566623  -1.988528151407472 
H  3.8276130901461567  5.318376718871225  -1.7835090924615917 
C  2.799841588724406  3.7611508233196576  -0.9804249492430944 
H  3.0790260706804427  3.900718823768215  -0.08304604471850685 
C  1.0820608885725798  2.5185061823852593  1.4748552022962604 
C  -0.1639341234197429  3.1481945230757704  1.5594629069616306 
H  -0.7834295596030263  3.0677844492959148  0.8433874887389178 
C  -0.49873922344217747  3.880401463371257  2.668295045557075 
H  -1.3498043323038142  4.298897499811564  2.7169043858333275 
C  0.3902433563204186  4.013664543551917  3.7111737366517965 
H  0.15253425972573065  4.518697873711555  4.479267989217229 
C  1.6306977073490816  3.406952208345044  3.6330316524595108 
H  2.2492003629945803  3.5040083926735113  4.348605682202842 
C  1.979501482923967  2.658854352760353  2.521228673234185 
H  2.8321484933333347  2.243476374013896  2.4761556168423158 
C  1.2815519755822278  -2.269443492466011  1.2874347463814546 
H  2.1313409935226453  -2.769250054149339  1.4560080713357877 
C  0.19239097906576985  -3.303624645840995  1.1516797992476815 
H  -0.6623714699427976  -2.856194706976705  0.9807539510771836 
H  0.12969639731408988  -3.822271889925587  1.980623057633009 
H  0.4015426007810392  -3.903352104163437  0.40505069797450216 
C  1.0637775730761243  -1.3595688153597556  2.4924019001138604 
C  -0.10011093603582455  -0.6255843670426662  2.6533791282732184 
H  -0.7779558210841409  -0.6720107721398799  1.9885496082279652 
C  -0.2909712676031688  0.17371890107552712  3.765676296034427 
H  -1.0840557294006155  0.6903198513803965  3.8474598799591178 
C  0.664341237319805  0.22310645609568547  4.753503217790968 
H  0.518933877945626  0.7514664170559153  5.529420359948508 
C  1.8428434647950853  -0.4983542684019988  4.617044055976476 
H  2.5077545124731246  -0.4592207938590025  5.294262240792832 
C  2.0447664023061636  -1.2771971453524116  3.4855864826090452 
H  2.857903747760038  -1.7594129903368794  3.385075208245686 
Br  -1.654629867976521  1.654629867976521  0.0 
C  -1.35204078  -1.31992066  -0.4819701 
C  -1.63807002  -1.59921746  -1.81393823 
H  -1.15796809  -1.15933936  -2.50351594 
C  -2.63068217  -2.5263265  -2.14228996 
H  -2.83682226  -2.69439953  -3.05388981 
C  -3.31015444  -3.19615732  -1.16198741 
H  -3.99601236  -3.81199015  -1.38686634 
C  -2.99747104  -2.9701089  0.1242356 
H  -3.43865917  -3.46858118  0.80170842 
C  -2.03898543  -2.01594063  0.49125628 
H  -1.86191301  -1.84921651  1.41015686 
