83

Pd  0.0  0.0  0.0 
P  1.4956246370664024  -1.5017346453351874  -2.556581125040998e-15 
N  1.4956246370663993  1.5017346453351865  -1.8390945265784218e-16 
H  1.534468289055365  1.6510467329909608  -0.873455717927393 
C  2.9332742766985067  -0.46646922089464554  -0.4965239416419656 
H  3.757522256892554  -0.9174563723889326  -0.2578492334445034 
H  2.925721504633184  -0.3378303527696564  -1.4585021416245185 
C  2.8714083342284598  0.8945415850748786  0.20580638035509258 
H  2.9913113344730293  0.7398846983063379  1.166810447936198 
C  3.959893359270195  1.849567893787286  -0.25162771317873367 
C  4.6503433733695445  2.615496973583718  0.6941056915143918 
H  4.447370735966422  2.5241623490373257  1.597457059933471 
C  5.63133862345335  3.5058945076311203  0.3004328696492098 
H  6.0916568603573475  4.00087076878949  0.9397067089882527 
C  5.926936656834107  3.6617717831052787  -1.0394685213688863 
H  6.579857712676985  4.26955816722794  -1.3054979297284104 
C  5.251200333513796  2.9147008718194862  -1.9819946243794113 
H  5.447700598333464  3.0233692344406187  -2.8847629683586824 
C  4.281225744896223  2.0046223308166904  -1.5968887731613044 
H  3.8428367647281743  1.4946141996337998  -2.2395538633868264 
C  1.2556481632419967  2.7176981150948016  0.7906196128486712 
C  1.2403494176008079  3.9610895330128675  0.13574081472681707 
C  0.9768133127834658  5.089793269232307  0.9102901852010276 
H  0.9538395029965723  5.924528266452942  0.5011943669885367 
C  0.7479182240384651  5.002877827542629  2.272540461157834 
H  0.5739647736190836  5.7705038982208485  2.766858003535518 
C  0.78255535513249  3.774403136137855  2.889209206699177 
H  0.6403965859791318  3.722802365495247  3.8074721237452045 
C  1.0239067448055097  2.6014441380407995  2.174093666743511 
C  1.0045969403165964  1.2802312652052346  2.933200145509313 
H  1.082625764391771  0.5594212683376494  2.2755833033974273 
C  2.1901248213623052  1.1589290361024762  3.902094728257115 
H  2.140346771503048  0.3197369398725095  4.364157528509821 
H  2.156752760658362  1.8763642589940168  4.539665513753874 
H  3.012092673389234  1.2051633326978657  3.408322979315788 
C  -0.30987154649754856  1.0752708110024214  3.691454864838886 
H  -0.28450696315565094  0.23355256275766118  4.153309743002652 
H  -1.0418267175575846  1.0777881698525644  3.06844183892137 
H  -0.4280046610393393  1.7848771474548575  4.326467860387185 
C  1.4489390788587801  4.141105690221295  -1.3595874323013248 
H  1.8512791497715875  3.3146723260746005  -1.6989997655525724 
C  0.10719537669596879  4.322549859366891  -2.0760597215000196 
H  0.2580787515276739  4.42946670749232  -3.0180189004384417 
H  -0.33572752563701824  5.102139764705122  -1.73312259594541 
H  -0.44383421871781903  3.550887782714627  -1.9255180514055066 
C  2.40028587417366  5.27316185625624  -1.6903011029990767 
H  2.506007618872336  5.335130237480627  -2.6416731713437134 
H  3.2536783807391783  5.102598414308858  -1.2840466236281947 
H  2.0463067460802646  6.097964243180952  -1.352482232304234 
C  1.8883786115715258  -2.2108649656004626  1.614733833915351 
C  0.8993201285658946  -2.2726319197611935  2.5929555984290937 
H  0.04936805377831743  -1.941611082262271  2.4097814580439687 
C  1.1645103838288873  -2.8186427696453853  3.8317873627628747 
H  0.49827256122660213  -2.851730875559668  4.479343654509917 
C  2.4116223572373428  -3.313644215013306  4.105478712397728 
H  2.5914433034662228  -3.669343253894289  4.946030329513846 
C  3.4112851212064763  -3.289701706187471  3.1426660542940135 
H  4.25109941703418  -3.642835351766803  3.3324816671483948 
C  3.1541845813009255  -2.740070922504132  1.8969952414353612 
H  3.821540879469395  -2.722736135642243  1.249152678416104 
C  1.4705475676932873  -2.895327555707771  -1.1596145871585777 
C  1.4240852151620065  -4.220873664125408  -0.7341308926929542 
H  1.4430605981407292  -4.417776023619155  0.1751786286839111 
C  1.348497586402015  -5.253426845086285  -1.667976666290515 
H  1.30931758048848  -6.138275379497909  -1.380209767071347 
C  1.3343864999338488  -4.969050266756309  -3.0136858320971944 
H  1.2958710335943198  -5.6593077255023845  -3.6346794467971213 
C  1.3754488277607473  -3.658728575695637  -3.437788639408524 
H  1.3688302221996633  -3.472140441852954  -4.348655980117113 
C  1.429340771130745  -2.6179482455254277  -2.5285384192982314 
H  1.4360291864288286  -1.7363584592656167  -2.8269419110056635 
Br  -1.654629867976521  1.654629867976521  0.0 
C  -1.35204078  -1.31992066  -0.4819701 
C  -1.63807002  -1.59921746  -1.81393823 
H  -1.15796809  -1.15933936  -2.50351594 
C  -2.63068217  -2.5263265  -2.14228996 
H  -2.83682226  -2.69439953  -3.05388981 
C  -3.31015444  -3.19615732  -1.16198741 
H  -3.99601236  -3.81199015  -1.38686634 
C  -2.99747104  -2.9701089  0.1242356 
H  -3.43865917  -3.46858118  0.80170842 
C  -2.03898543  -2.01594063  0.49125628 
H  -1.86191301  -1.84921651  1.41015686 
