79

Pd  0.0  0.0  0.0 
N  2.02513  -0.02094  0.0 
O  2.7231  -1.19589  0.03357 
C  0.47041  2.05318  0.0 
C  1.84324  2.29254  0.27097 
C  2.33369  3.60154  0.33431 
H  3.38231  3.80051  0.51535 
C  1.45929  4.67557  0.17829 
H  1.85198  5.6825  0.25466 
C  0.08844  4.44537  -0.00671 
H  -0.57581  5.29408  -0.05138 
C  -0.40564  3.13503  -0.10524 
H  -1.47172  2.96891  -0.2231 
C  2.70756  1.0957  0.60156 
N  4.0445  1.21397  0.00159 
H  4.58823  1.95057  0.5013 
H  4.58282  0.33328  0.17831 
C  2.21738  -2.05737  -0.94769 
H  3.00625  -2.77488  -1.2546 
H  1.92726  -1.56825  -1.898 
C  1.0749  -2.80062  -0.33185 
N  -0.09554  -2.03224  0.0 
C  1.06276  -4.27988  -0.08453 
H  1.92779  -4.88322  -0.33777 
C  -0.01774  -4.84573  0.46087 
H  -0.02945  -5.91131  0.66087 
C  -1.20325  -4.03008  0.80103 
H  -2.05476  -4.50452  1.27953 
C  -1.23288  -2.71124  0.5525 
H  -2.11084  -2.17313  0.87846 
O  -0.91251  0.35291  -4.09506 
N  -4.13078  0.20098  -0.9233 
H  -4.77495  -0.04145  -1.71132 
H  -4.55495  -0.15169  -0.03554 
N  -1.92503  0.0  -0.07497 
H  -2.38218  0.18801  0.84714 
N  -2.38459  -0.13913  -2.43649 
N  -0.07497  0.0  -1.92503 
H  0.83455  0.18277  -2.36996 
C  -2.83045  -0.44606  -1.12174 
C  -1.17088  0.04735  -2.7997 
C  -1.87993  0.40524  -5.06737 
H  -2.35196  -0.59312  -5.17365 
H  -2.6632  1.13933  -4.76481 
C  -1.28084  0.87378  -6.37808 
H  -0.92584  1.91887  -6.23218 
H  -2.09323  0.88322  -7.12941 
C  -0.09112  0.03068  -6.89122 
H  0.75197  0.09012  -6.16558 
C  0.37393  0.63585  -8.21735 
H  1.24084  0.07695  -8.62101 
H  0.68153  1.69234  -8.05729 
H  -0.45235  0.61802  -8.96093 
C  -0.45873  -1.45103  -7.07993 
H  -0.68945  -1.92514  -6.09831 
H  0.40187  -2.00964  -7.51484 
H  -1.33448  -1.56585  -7.75293 
N  0.0  0.0  1.91 
C  0.99907  -0.16547  2.93625 
C  0.43946  -0.08711  4.40126 
C  -0.50067  -0.98333  5.06185 
C  -0.69289  -0.89282  6.47665 
H  -1.35058  -1.5847  6.99245 
C  -0.05685  0.09725  7.22553 
C  0.71419  1.03955  6.57177 
H  1.16971  1.83834  7.1516 
C  0.95825  0.96338  5.18564 
C  -1.31397  -2.04445  4.35804 
H  -2.02751  -2.55275  5.06184 
H  -0.68428  -2.81592  3.89465 
H  -1.97078  -1.55671  3.59939 
C  -0.15913  0.14097  8.7409 
H  -0.60439  -0.79953  9.15066 
H  -0.76891  1.00695  9.06656 
H  0.85191  0.22763  9.17377 
C  1.77886  2.02703  4.5224 
H  1.13147  2.5231  3.76424 
H  2.65196  1.56787  4.01574 
H  2.12551  2.79569  5.23788 
