25

Fe  0.0  0.0  0.0 
O  5.02269  1.12642  -0.14679 
O  3.5496  2.44184  -1.14949 
N  1.30687  1.33753  0.0 
H  1.22803  1.79288  -0.93849 
H  1.25113  2.07638  0.73957 
N  1.30687  -1.33753  0.0 
H  1.40964  -1.79265  0.93587 
H  1.07616  -2.06474  -0.71637 
C  3.75552  1.48814  -0.41358 
C  2.60592  0.68566  0.17493 
H  2.77136  0.56138  1.26821 
C  2.53239  -0.68903  -0.45318 
H  2.46544  -0.55278  -1.55869 
H  3.42938  -1.30652  -0.22941 
C  -1.35057  1.35057  0.0 
H  -0.84049  1.91523  0.80153 
H  -1.02835  1.61238  -1.03162 
C  -2.63362  2.14547  0.05318 
H  -3.40581  1.70887  -0.59884 
H  -2.38654  3.18325  -0.30121 
H  -2.97671  2.2351  1.10637 
O  -3.20275  -2.89098  -0.00078 
N  -1.32229  -1.32229  0.0 
C  -2.30392  -2.11502  -0.00315 
