27

Fe  0.0  0.0  0.0 
O  1.12756  1.39022  0.0 
C  2.44502  1.24148  -0.24433 
C  3.18452  2.35509  -0.38312 
C  4.62512  2.30899  -0.72077 
C  5.26174  1.14683  -0.91113 
C  4.54621  -0.16057  -0.76223 
C  3.08124  -0.10562  -0.40644 
C  2.44305  -1.28008  -0.25686 
O  1.12756  -1.39022  0.0 
H  2.71456  3.32829  -0.27128 
H  5.16909  3.2404  -0.83518 
H  6.31314  1.14397  -1.17846 
H  5.07023  -1.12039  -0.96006 
H  2.99776  -2.20623  -0.37556 
S  -1.57487  1.29085  0.0 
N  -1.57487  -1.29085  0.0 
C  -2.46692  -0.23251  0.08832 
N  -3.80607  -0.65101  -0.00882 
C  -3.74117  -2.05951  -0.02539 
H  -4.60038  -2.72159  -0.04514 
C  -2.39072  -2.44816  -0.01178 
H  -2.02877  -3.46964  -0.02104 
C  -4.94715  0.23823  -0.02251 
H  -5.89484  -0.33553  -0.06839 
H  -4.87632  0.91459  -0.89887 
H  -4.93115  0.85637  0.89592 
