47

Ru  0.0  0.0  0.0 
P  1.6016900090217217  1.4897614288871894  -1.363278587673572e-15 
N  3.0346556881155218  -1.3943156298197423  -0.2690236457630517 
C  5.21401206621253  -0.38994221405901985  0.3417523516050939 
H  5.462143412513819  -1.1435000107852833  0.9340681558647793 
H  5.69182642374929  -0.4838155465861367  -0.520118727601085 
C  3.7139544459005265  -0.3277076319291452  0.131286029997571 
C  3.220084418088401  0.9229826389230018  0.499971549139062 
C  4.343863033976493  1.6898432166286357  1.0776389420509622 
C  4.364244331481836  2.899293380971989  1.7620626724123851 
H  3.565720648705656  3.3978087711541294  1.8912027273803371 
C  5.584472086052029  3.364292196599438  2.2540187461036796 
H  5.615060683963584  4.200252146864941  2.705160563307433 
C  6.740309289801742  2.6415536163663136  2.1013772279289764 
H  7.560397211627658  2.9894574853684466  2.431074040786787 
C  6.71895133666351  1.4240932600763778  1.477428392927157 
H  7.51845960110351  0.920084144629707  1.3795091576419862 
C  5.5158105457632685  0.9322221854256134  0.9886294330327164 
C  1.6016900090217214  -1.4897614288871894  0.0 
H  1.462291974065141  -1.3539840177676825  0.9707647925630338 
H  1.3095692885725536  -2.4113574867375807  -0.21309078074585894 
C  3.680459341612557  -2.590697389637048  -0.7813061321964081 
H  4.579042049865858  -2.3643170555375685  -1.1058522780080042 
H  3.151076829025807  -2.9590987452889808  -1.519359000574528 
H  3.750381341851769  -3.2562694945214234  -0.06527894201273343 
C  1.8645491178415528  2.922310633489805  -1.1727992689726918 
H  0.9629725715506643  3.139663082493585  -1.5469172371194764 
C  2.42349682638484  4.223048347210502  -0.6542143586456814 
H  2.4999935586163886  4.863074257743189  -1.392364765950795 
H  3.308250434157686  4.066440305495879  -0.26423304524301905 
H  1.8228655867056578  4.5854054599216525  0.03156971581880304 
C  2.7003889590277907  2.4432219947584786  -2.3506310592230464 
H  2.8414742899045162  3.186174747822281  -2.9736909890262053 
H  2.2304019969796784  1.7165074859738767  -2.8097403797848806 
H  3.5661167679698162  2.1198776621294475  -2.025635577129638 
C  0.8188768753889799  2.2592916085323567  1.5041693755782393 
H  1.2842746036981034  3.125470873868749  1.6862785867292016 
C  -0.6667622413790129  2.562088600891701  1.2653629138838967 
H  -1.0503199073761682  2.969572277961695  2.0687494832117235 
H  -1.1405122548614657  1.728828227163767  1.062560807632114 
H  -0.7564834479972717  3.1803501608570492  0.5100520914060314 
C  0.988626928634152  1.3704453816642617  2.726998584587246 
H  0.5725315721523678  1.8009587461289867  3.5039686402081722 
H  1.9441698436170647  1.2332066560297013  2.9012553199295743 
H  0.5588973304836353  0.5055938993954423  2.564496042789217 
Cl  -1.5839191898578666  1.5839191898578666  0.0 
Cl  -1.5839191898578666  -1.5839191898578666  0.0 
