72

Pd  0.0  0.0  0.0 
S  -0.07824  2.04562  0.0 
O  4.21665  0.76707  -0.07453 
N  2.10872  0.02097  0.0 
N  0.36952  -2.06659  0.0 
C  1.42235  2.96215  0.3808 
C  3.58411  4.5681  1.20016 
H  4.42035  5.16179  1.54469 
C  1.21884  4.28128  0.80814 
H  0.22076  4.69083  0.86632 
C  2.29139  5.07682  1.22407 
H  2.12123  6.07917  1.59313 
C  3.79958  3.26935  0.75788 
H  4.81559  2.89307  0.79588 
C  2.71983  2.44787  0.36008 
C  3.02689  1.04562  0.06248 
C  2.64413  -1.31625  -0.27192 
H  3.68422  -1.46939  0.09052 
H  2.6531  -1.53935  -1.35094 
C  1.76472  -2.30699  0.40525 
H  2.08933  -3.35373  0.20259 
H  1.9011  -2.10808  1.49288 
C  0.06652  -2.70342  -1.30918 
H  -0.97347  -2.47743  -1.62237 
H  0.15747  -3.81275  -1.26118 
H  0.7654  -2.40125  -2.10569 
C  -0.51003  -2.76373  0.97305 
H  -0.13006  -2.67927  2.00919 
H  -0.53002  -3.86633  0.82502 
H  -1.54601  -2.38049  0.9175 
N  -1.92196  0.0  -0.07805 
O  -5.03994  0.07248  1.79728 
H  -5.99833  0.03275  1.69392 
C  -4.193  0.04326  0.7434 
C  -2.38017  0.01207  -1.43115 
C  -2.87884  0.07068  0.98092 
H  -2.63556  0.16214  1.99889 
C  -3.84791  0.00858  -1.68618 
H  -4.25361  0.00922  -2.68932 
C  -4.69773  0.00762  -0.64618 
H  -5.76801  0.00581  -0.81411 
N  -0.07805  0.0  -1.92196 
O  1.84078  0.07137  -5.0044 
H  1.72967  0.08085  -5.96392 
C  0.79008  0.03678  -4.15964 
C  -1.41952  0.02754  -2.38989 
C  1.01544  0.03504  -2.83978 
H  2.03709  0.08801  -2.50168 
C  -1.66199  0.0411  -3.85041 
H  -2.66304  0.05641  -4.26248 
C  -0.60684  0.03574  -4.68396 
H  -0.77149  0.04857  -5.75605 
N  -0.42971  0.29381  4.15569 
N  0.56196  1.12769  3.80964 
N  0.0  0.0  1.91 
C  0.84029  0.93708  2.59793 
C  -0.74615  -0.5  3.02642 
C  -0.94823  0.26855  5.4765 
C  0.22372  0.02532  6.43625 
C  0.85824  -1.34304  6.13713 
C  -0.24447  0.13528  7.87142 
H  1.60489  1.5083  2.19714 
H  -1.4742  -1.30172  3.04783 
H  -1.73743  -0.50502  5.58167 
H  -1.3959  1.27007  5.68604 
H  1.01082  0.80582  6.28569 
H  1.26433  -1.37004  5.10056 
H  0.09453  -2.14037  6.23171 
H  1.70089  -1.54267  6.82925 
H  0.60522  -0.04981  8.55757 
H  -1.05415  -0.59494  8.05915 
H  -0.62488  1.1674  8.0525 
