54

Fe  0.0  0.0  0.0 
N  -1.1557417528102722  -1.56190364383541  -0.18955680233035294 
N  1.4103235321532805  -1.3378438026487833  0.18810879164445266 
N  1.2343286644539593  1.5806640085826003  -0.17707479550712185 
N  -1.4889104437969678  1.3190834379015928  0.17852280619302208 
O  1.58895665645441  -3.570945063103882  0.6887414088961297 
O  -0.9759345436583227  -3.8577507347937763  -0.34696325859879623 
C  -0.5223614795315463  -2.7105485023543263  -0.11299840357866658 
C  0.952889897823771  -2.5603553941494073  0.31047128112023065 
C  2.7970850560561065  -1.0790131895738608  0.5679174139241101 
C  3.3184496348158645  0.2303240137356401  0.015252475607669763 
C  2.553372572503005  1.4625737244500612  0.48149424675966673 
C  0.4704850622560644  2.757465735753375  0.2783660637811363 
C  -0.9613737085654654  2.643299592333959  -0.2145106775226044 
C  -2.7789192164143977  0.9964488522447019  -0.46736869453142676 
C  -3.3023514323887686  -0.35907067997670367  -0.03359958193070095 
C  -2.551996724909303  -1.5502731653693853  -0.6167190137435189 
H  0.5060077079758429  2.758609385875648  1.2456253845971543 
H  2.841286526151194  -1.0572628757167346  1.5492132377654984 
H  3.04748966211984  2.2211402476252964  0.2464057279706287 
H  4.21962031433359  0.3303458590357886  0.31458354121949855 
H  -4.283016256756482  -0.45951289919830285  -0.3266065491613128 
H  -1.0101118308738617  2.631482672823998  -1.2592134131594683 
H  3.3289452709974525  0.17996878622541804  -0.9505241510941453 
H  0.8678319080770456  3.5616107966157746  -0.011324348912699012 
H  -2.6740143569301855  0.9938085019779175  -1.3744858032925096 
H  -1.5079744736569087  3.3519754526185226  0.14046141807278595 
H  -2.5523600782297473  -1.5285655444858142  -1.6906174154417146 
H  2.3467894877269706  1.423186495445411  1.495048525165985 
H  -3.4468028730979277  1.7302353645903996  -0.21695282954964684 
H  -3.283435128221864  -0.38043023858145514  0.9120888089745036 
H  -2.931752366146528  -2.2529168567565363  -0.30548303269000704 
H  3.2992575166389386  -1.7897263369745762  0.23038393122357242 
H  -1.608668608143076  1.3406688971112173  1.0383356637516656 
H  1.4264331885166748  1.5997798309244295  -0.9817791245440874 
O  -0.5239574275124467  -1.6483682336233783  3.519709800099349 
C  -1.575138969688709e-16  7.724783534606628e-17  1.9099999999999997 
H  0.14119558270483673  -0.7778830575511185  1.3136046142033238 
H  0.8306182687313943  0.5394210908954975  1.898478353122468 
C  -0.22247591537168243  -0.492943475920705  3.2815307348458314 
C  -0.035462693111942944  0.5019822106337872  4.395202959036639 
H  -0.7253487516636624  0.166066524478368  4.875847836270034 
H  0.7925850543275229  0.3312383628578879  4.723105195087425 
H  -0.25715411810402167  1.3804865782296631  4.294040919713815 
C  0.0  0.0  -1.91 
F  -1.7393454619609825  1.5824272023101127  -2.0921919958305657 
N  -0.014342933855882024  -0.009435993199878666  -4.770338529314448 
C  -0.8500286012150743  0.7628717435498179  -2.67843326971807 
F  -1.7121310292713303  1.4731654030221357  -4.756673501465337 
C  -0.8371520942973467  0.73300953695416  -4.058663947607399 
F  1.678840240436029  -1.49421718014489  -4.776256737567754 
C  0.824867245013359  -0.7266353866585111  -4.058273142074747 
F  1.7770477911419884  -1.5649559467152478  -2.1244520758536902 
C  0.8722448440092405  -0.7562293791176979  -2.686584894431095 
