77

Ni  0.0  0.0  0.0 
P  1.3817531210386318  1.4733832877089377  -4.797481761014054e-17 
P  2.7945574885345534  -1.0680949693321642  0.6490811491422575 
N  1.3817531210386318  -1.4733832877089381  5.551115123125783e-17 
C  2.54847969070605  0.6492318940222459  1.1513820269208843 
H  3.398505285699913  1.1158177822529836  1.1474594309352093 
H  2.191458337329329  0.6781343563721598  2.052933639921033 
C  1.1114482229202147  3.0980511185231534  0.7658476882322172 
C  0.7187319844141895  3.155657815781123  2.089378770014867 
H  0.5885802374279356  2.3678979710194756  2.5681068762897485 
C  0.5215607903830333  4.375121284647982  2.7066470976840753 
H  0.2709033019263516  4.413825531177528  3.6015606939497666 
C  0.6968478910805276  5.5233458295528255  1.9887809772917473 
H  0.5604578331479657  6.346255720084663  2.4022194420746357 
C  1.0638083109096494  5.484201062891543  0.6920156371002708 
H  1.17576728401513  6.27781902690295  0.22008719385960002 
C  1.2743980708179736  4.276777468609922  0.062418744641444035 
H  1.5262721012459364  4.255124576069239  -0.8332767421399832 
C  2.2855613407163387  1.7900517499428936  -1.5230435670293474 
C  3.5403016246731274  2.396987713218631  -1.4902459101223131 
H  3.927844895194008  2.6248151277143994  -0.6759265976421562 
C  4.201417908293058  2.655775642456583  -2.6667529594906383 
H  5.040406002082779  3.0573498084836923  -2.6488636426008885 
C  3.6356532370734485  2.3299906861561794  -3.8543502814176454 
H  4.096684873617359  2.5004016831415066  -4.643741402606731 
C  2.3961481025098657  1.7559477727774309  -3.908934573940124 
H  2.007557608866224  1.5556249630495196  -4.730087629193856 
C  1.7207456488161057  1.4725811983884882  -2.726696421086126 
H  0.8852423270472193  1.0665606265587262  -2.754891359713632 
C  4.214947443593969  -1.13401710976246  -0.47125186249646095 
C  5.244236558710986  -0.21809341138901295  -0.4870947239662604 
H  5.224397043913031  0.4956938792455441  0.10946470926832347 
C  6.304026560078386  -0.3299449481715826  -1.3732048845677456 
H  6.992610284213752  0.29595760053587594  -1.356326662582621 
C  6.337258212505814  -1.3505988320217126  -2.260263826610849 
H  7.048431305444444  -1.4187344969484559  -2.85532594357431 
C  5.338841936599865  -2.2789736116263875  -2.292112666465504 
H  5.3588353583210315  -2.9645811473075963  -2.9191236632630284 
C  4.300564584000281  -2.1995372721644455  -1.38407100054273 
H  3.6470302817827873  -2.861762989762477  -1.3774934039539948 
C  3.261330831784688  -1.9393861979683886  2.154476306877499 
C  2.3766211383002163  -1.9206702126371842  3.2195696925239163 
H  1.5417805436469783  -1.5238821467775079  3.1239490759688135 
C  2.732116083960144  -2.488154941135865  4.414764562213002 
H  2.1338887249555607  -2.4774367898362417  5.12689789816292 
C  3.9652881800320934  -3.074027502064847  4.5737448560235165 
H  4.212459488251307  -3.427647282706017  5.397566350725194 
C  4.815045881541778  -3.1347329415429073  3.5248972082009864 
H  5.6350371630781435  -3.5641122587087315  3.6254420747758447 
C  4.488407206627286  -2.5698002339822725  2.314827432535808 
H  5.0898544822457845  -2.6089819835525203  1.6055004662137016 
C  1.1841550928674047  -2.724723092076407  -0.6660577777253582 
C  1.4799539923725047  -3.952551264888811  -0.08689873298916927 
H  1.8685066277152134  -3.9825362256037504  0.7563733059752307 
C  1.2021199117449843  -5.125163299661193  -0.7563527116530124 
H  1.417233402116413  -5.932293440148388  -0.3512156205624169 
C  0.6198558430156692  -5.14023278645748  -1.996684717542768 
C  0.3417318010209751  -3.926259711751788  -2.5699170710907397 
H  -0.044023651800347174  -3.9027670603224234  -3.4157978818125945 
C  0.6173811916881221  -2.738229194097519  -1.9261083164539645 
H  0.4180935900382339  -1.932714040708285  -2.3491569418966622 
C  0.28219129384981834  -6.452899474164656  -2.684821287723799 
H  -0.11610544207974738  -6.271034909638026  -3.539426395546947 
H  -0.33544115719097745  -6.94854038178995  -2.1418096708041117 
H  1.0836473241506726  -6.96498428352422  -2.807644695580717 
Br  -1.5839191898578664  1.5839191898578664  0.0 
C  -1.2937473829822488  -1.2398794889499034  -0.4598005675376139 
C  -1.601562203225019  -1.4938654694550033  -1.7919791134336869 
H  -1.1309417375171225  -1.0428217585005106  -2.480879663633267 
C  -2.60218398542082  -2.411889969420291  -2.121542410022959 
H  -2.8231586547736818  -2.5626138747145775  -3.03270050271447 
C  -3.2683208079706407  -3.09759503004543  -1.143064365570095 
H  -3.9596020908062854  -3.707191723557817  -1.3683280760515548 
C  -2.9347449854640226  -2.896087320001541  0.14198826503765638 
H  -3.3668350933519986  -3.405606940434718  0.8171022443470677 
C  -1.9675509241539992  -1.9516175659140573  0.5112421903797603 
H  -1.7755298364628027  -1.8022912010877177  1.4301324877763764 
