65

Pd  0.0  0.0  0.0 
S  -0.03667  2.12232  0.0 
S  2.50636  -3.91939  -0.19043 
N  2.39224  1.30847  -0.01368 
N  1.95248  0.02716  0.0 
C  -0.10727  -3.48064  0.06374 
H  -1.16461  -3.67604  0.13986 
C  1.44841  2.3623  -0.07284 
N  2.00202  3.68253  -0.13971 
H  1.41871  4.51041  -0.00343 
C  3.44043  3.84095  -0.34486 
H  4.03753  3.21765  0.36271 
H  3.75141  4.89724  -0.20015 
H  3.72286  3.53214  -1.37791 
C  2.64442  -1.02491  -0.25549 
C  4.14989  -1.02584  -0.26043 
H  4.54328  -1.07492  -1.2923 
H  4.52007  -1.89589  0.3254 
H  4.54145  -0.12586  0.26195 
C  1.82275  -2.25621  -0.22176 
C  0.48419  -2.14948  0.0 
C  0.82579  -4.49031  -0.0071 
H  0.56204  -5.53854  0.02323 
N  -1.9426  0.0  -0.0574 
N  -0.0574  0.0  -1.9426 
C  -3.07185  -0.22832  0.90912 
C  -3.44386  -1.72243  0.99771 
C  -4.30762  0.67079  0.61166 
C  -2.74033  0.20095  2.24423 
C  -2.33547  -0.07565  -1.42671 
C  -1.40183  -0.05571  -2.36462 
C  -1.73072  -0.1  -3.79247 
C  -0.72635  -0.07429  -4.67683 
C  0.68881  -0.00587  -4.2193 
C  0.99672  0.02676  -2.90318 
H  -3.87709  -2.1003  0.05874 
H  -4.14818  -1.89643  1.84503 
H  -2.524  -2.30244  1.23471 
H  -4.86017  0.37008  -0.28722 
H  -3.99304  1.73861  0.5341 
H  -5.05056  0.6143  1.44623 
H  -2.19868  -0.64593  2.69159 
H  -3.54394  0.33134  2.9941 
H  -2.2676  1.18363  2.01943 
H  -3.37235  -0.15053  -1.72197 
H  -2.76826  -0.14572  -4.11938 
H  -0.96302  -0.09656  -5.73523 
H  1.47519  0.01543  -4.96379 
H  2.03318  0.07738  -2.6027 
N  1.12907  -1.36479  3.57443 
C  0.97973  -1.03158  2.24215 
C  0.0  0.0  1.95 
C  -1.15297  1.30481  4.18521 
C  -1.30053  1.20642  5.57622 
C  -0.55963  0.27809  6.3221 
C  0.31726  -0.56758  5.6764 
C  0.34399  -0.541  4.29669 
C  -0.35451  0.33608  3.48239 
H  1.93697  -1.89831  3.94669 
H  1.9177  -1.15378  1.86481 
H  0.59533  0.80306  1.7229 
H  -1.72646  2.08091  3.7131 
H  -1.99524  1.85285  6.08363 
H  -0.6629  0.22061  7.39457 
H  0.94271  -1.26857  6.22371 
