78

Pd  0.0  0.0  0.0 
P  1.7146573732090034  1.2458130246951187  0.0 
N  3.8618586934521844  -0.8990548784590728  0.28845358095378476 
N  1.7146573732090034  -1.2458130246951182  0.0 
C  6.459684277363694  -1.1697394782468524  -2.753266132138294 
H  5.979852694850028  -1.88922105151051  -3.2349580753514804 
H  7.028902281069268  -0.6934225685362481  -3.4090980586112067 
C  5.4123225560589825  -0.16546518892788775  -2.16303303703215 
H  5.359928800461861  0.6265696392851796  -2.7536965920886107 
H  4.522412495340777  -0.5971021475570513  -2.1565307468306636 
C  5.753716016551661  0.2937374712305283  -0.743464778005372 
C  5.1533350643562486  -0.2541474091406972  0.3895893778501965 
C  5.80549335428959  -0.33690393275725783  1.6084505769496675 
H  5.3789413336163365  -0.7442056826520129  2.3528032072212604 
C  7.105439652540374  0.18789162407198678  1.7351578190329384 
C  7.533454660244919  1.0291743400369213  0.7074528978622823 
H  8.284805351585867  1.5929529617702156  0.8497672130172983 
C  6.889351686615603  1.0604378837854156  -0.5112862211431753 
H  7.22748954184506  1.614840929273744  -1.2044583455207216 
C  8.059948222813842  -0.34637877751005575  2.76379823592699 
H  7.558821205200658  -0.5578919418265758  3.5907432362377363 
H  8.72396471547798  0.3546689621487398  2.983033530050276 
C  8.822522059455643  -1.6422668786920862  2.2800718330045484 
H  9.79612336454308  -1.5031587167410494  2.3937456998807964 
H  8.55690345582015  -2.404578771548091  2.8547840091527927 
C  8.542271001735182  -1.997232966085677  0.8329835179915496 
C  7.451446556564217  -2.8164209740532105  0.4760402768176928 
H  7.107538582972377  -3.445065533449803  1.0997772274956628 
C  6.873997909681442  -2.707143400050226  -0.7924759635329527 
H  6.144817234861857  -3.2675639335976765  -1.0315999043002078 
C  7.352135519040645  -1.7983960338256202  -1.6890172625795261 
C  8.597628309065964  -1.2067581031013208  -1.4417887672086864 
H  9.03127074394772  -0.7138579866089001  -2.127495974281487 
C  9.198077395242176  -1.3371613672988178  -0.19907979339508172 
H  10.062800188426312  -0.972345226360473  -0.0524171728719009 
C  2.6728382061002285  -0.3058281659828057  0.022704115738892354 
C  2.2804252086212693  -2.4603711766861007  0.25092266108339273 
H  1.8327856098099808  -3.2970014127964298  0.2896239220711722 
C  3.6114450519955748  -2.2397635698044347  0.4357784706481431 
H  4.260773763675533  -2.9052893859299385  0.6342906925855845 
C  2.03504594775245  2.135390873081489  1.5976636607754289 
C  0.9620186617276977  3.2197664360441625  1.7671689760187854 
H  1.0711456445064858  3.899835879215493  1.070575332569297 
H  1.0557819551304877  3.6375335565375204  2.6489748094339434 
H  0.07291551187798029  2.8151550296709162  1.6900892201810147 
C  1.8664870817593078  1.066799749364675  2.6935324161511804 
H  1.977724820006441  1.482123914984652  3.5742962568268566 
H  2.5429501848634555  0.36719291613759686  2.574390613912389 
H  0.9725045034327469  0.67128327118322  2.628905911251432 
C  3.438139095289965  2.7365062372295474  1.7117874020323964 
H  3.545313692027438  3.1513196480352894  2.592547988133915 
H  3.5606253961456265  3.4141302371926185  1.0146474729100108 
H  4.106850874711322  2.028967820527157  1.600578881884809 
C  1.978026401669391  2.193651774646362  -1.5728130050768103 
C  3.3562799349230446  2.872347857637565  -1.6669677447678741 
H  3.435582380448353  3.332655254199212  -2.52768774151732 
H  4.0596949879899  2.193780112524383  -1.5941957143511278 
H  3.4517813442832703  3.521025816513273  -0.9391093818434171 
C  0.8648770062090966  3.254014019071673  -1.6501214391815544 
H  -0.007790487795169998  2.818153553466983  -1.564288348644113 
H  0.9152162601842995  3.7178395800072  -2.512492512752611 
H  0.9802680746967252  3.9015365557680743  -0.9236033968842174 
C  1.8218946387807415  1.1851199242850432  -2.688797825504104 
H  1.8652607982692253  1.6450875266788578  -3.5532765302500997 
H  0.9563941265346335  0.7343941340827633  -2.6023271637263217 
H  2.5426068923221874  0.5229971669781275  -2.634562764413363 
Br  -1.654629867976521  1.654629867976521  0.0 
C  -1.352040782177733  -1.3199206589279684  -0.4819701001757076 
C  -1.6380700204479186  -1.599217458033982  -1.8139382277462257 
H  -1.1579680913617836  -1.159339363685303  -2.503515938957912 
C  -2.63068216563725  -2.52632649780156  -2.142289956238523 
H  -2.8368222554424674  -2.694399528648736  -3.0538898079700485 
C  -3.3101544432602585  -3.1961573187854975  -1.1619874135498987 
H  -3.9960123560788676  -3.811990145619169  -1.3868663427944008 
C  -2.9974710358883443  -2.9701089012107795  0.12423560353005347 
H  -3.438659168087169  -3.468581175155742  0.8017084178296768 
C  -2.0389854250767776  -2.015940632791841  0.4912562833419403 
H  -1.8619130127668426  -1.8492165108145995  1.4101568590026907 
