55

Pd  0.0  0.0  0.0 
P  1.5436714263404625  -1.4523011146108789  1.0331337747559713e-16 
N  1.5436714263404625  1.4523011146108789  -6.683328867811896e-17 
C  -0.030106509954348715  3.24793519404813  -0.5459913827115241 
H  -0.5449025916691352  3.150375880366846  0.28090530646141015 
H  -0.4677804930335767  2.7457972195858624  -1.2651319664213556 
H  0.020917071158075506  4.195466219918551  -0.791541457407946 
C  1.339182632292838  2.7173850056277025  -0.3397958384069551 
C  2.433216475891841  3.602640826246192  -0.5743891271453694 
H  2.2568484586389044  4.515201180753044  -0.7737536723197729 
C  3.717127017972788  3.1746127102128603  -0.5201652226526663 
H  4.438761928562776  3.7800213208339284  -0.6388525850956406 
C  3.9526914595121045  1.810039279081821  -0.28151134161668956 
C  5.240646650876959  1.2402654273129952  -0.33824565995120054 
H  5.992034258785709  1.810527827904695  -0.4540449568081485 
C  5.442782577797473  -0.10891076988698692  -0.23062658191676644 
H  6.323449514611929  -0.4671337270726888  -0.26220346186074633 
C  4.330624713114879  -0.9697235155516224  -0.07304333113809224 
H  4.460731924924889  -1.9092116260221395  -0.016409209624990696 
C  3.05996231882211  -0.44595772597305494  -0.00040437879584193185 
C  2.85359925015391  0.9516638275598317  -0.07602988368779295 
C  1.8207366891697099  -2.7598608320106686  1.2219676245984479 
C  2.186996447091082  -2.360268730096259  2.5123546021424192 
H  2.384024067804208  -1.4472357566585983  2.6839592526962814 
C  2.264638138663033  -3.2824380010045413  3.537707138357342 
H  2.5197844298069474  -3.0033201163442307  4.409056957074418 
C  1.9722803105140505  -4.612358064115904  3.294383062167013 
H  1.997934706766812  -5.241894174638662  4.005386358573411 
C  1.639059897454085  -5.026519231485906  2.0119712976533872 
H  1.463096764363816  -5.944997167349365  1.842688229613313 
C  1.5621647311842066  -4.102691027746298  0.9712015424339064 
H  1.332867248158176  -4.388381547312669  0.09467006478587295 
C  1.4530230350650752  -2.2162594348503237  -1.6389951293692635 
C  2.4287147841505714  -3.080755187397064  -2.126612371266202 
H  3.15487347543209  -3.339908248847989  -1.57183538380463 
C  2.338345402133165  -3.567125863487372  -3.420486403092059 
H  3.009210352880789  -4.148214982341428  -3.7546484952087957 
C  1.2663173843945237  -3.202982811692155  -4.2338255125738655 
H  1.20950358069843  -3.5308579886850344  -5.123634227984911 
C  0.29182974869815737  -2.367230740176869  -3.7424919671763908 
H  -0.44797764133959284  -2.1348186931128983  -4.29108824498467 
C  0.37961093423554515  -1.862370905929305  -2.4451970773270544 
H  -0.2918491532261105  -1.2778006529294863  -2.1156693694575424 
Br  -1.654629867976521  1.654629867976521  0.0 
C  -1.352040782177733  -1.3199206589279684  -0.4819701001757076 
C  -1.6380700204479186  -1.599217458033982  -1.8139382277462257 
H  -1.1579680913617836  -1.159339363685303  -2.503515938957912 
C  -2.63068216563725  -2.52632649780156  -2.142289956238523 
H  -2.8368222554424674  -2.694399528648736  -3.0538898079700485 
C  -3.3101544432602585  -3.1961573187854975  -1.1619874135498987 
H  -3.9960123560788676  -3.811990145619169  -1.3868663427944008 
C  -2.9974710358883443  -2.9701089012107795  0.12423560353005347 
H  -3.438659168087169  -3.468581175155742  0.8017084178296768 
C  -2.0389854250767776  -2.015940632791841  0.4912562833419403 
H  -1.8619130127668426  -1.8492165108145995  1.4101568590026907 
